2337380
 OpenBabel03252423443D

148152  0  0  0  0  0  0  0  0999 V2000
    0.5577   -0.5853    0.2472 O   0  0  0  0  0  0  0  0  0  0  0  0
    1.6860   -0.3684   -0.0952 C   0  0  0  0  0  0  0  0  0  0  0  0
    2.5252   -1.3003   -0.6296 O   0  0  0  0  0  0  0  0  0  0  0  0
    2.3612    1.0048    0.0034 C   0  0  2  0  0  0  0  0  0  0  0  0
    1.9206   -2.5686   -0.9813 C   0  0  2  0  0  0  0  0  0  0  0  0
    2.4780    1.3799    1.5427 C   0  0  2  0  0  0  0  0  0  0  0  0
    1.6674    1.9170   -1.0111 C   0  0  0  0  0  0  0  0  0  0  0  0
    2.7271   -3.7934   -0.3814 C   0  0  2  0  0  0  0  0  0  0  0  0
    1.8272   -2.5847   -2.5238 C   0  0  0  0  0  0  0  0  0  0  0  0
    2.0620    2.7422    1.7731 O   0  0  0  0  0  0  0  0  0  0  0  0
    4.0309    1.0526    2.0956 C   0  0  1  0  0  0  0  0  0  0  0  0
    2.1485   -5.0133   -0.8984 O   0  0  0  0  0  0  0  0  0  0  0  0
    2.6436   -3.9119    1.2122 C   0  0  2  0  0  0  0  0  0  0  0  0
    4.1627   -3.7646   -0.9398 C   0  0  0  0  0  0  0  0  0  0  0  0
    0.9950   -1.4301   -3.0743 C   0  0  0  0  0  0  0  0  0  0  0  0
    0.6918    3.1714    1.5737 C   0  0  2  0  0  0  0  0  0  0  0  0
    4.4658    1.1014    3.6746 C   0  0  2  0  0  0  0  0  0  0  0  0
    4.5419   -0.2025    1.4250 C   0  0  0  0  0  0  0  0  0  0  0  0
    2.2667   -2.6635    1.7939 O   0  0  0  0  0  0  0  0  0  0  0  0
    3.9428   -4.3934    1.9018 C   0  0  1  0  0  0  0  0  0  0  0  0
    0.5203    4.5288    1.9906 O   0  0  0  0  0  0  0  0  0  0  0  0
   -0.3669    2.2159    2.0689 C   0  0  0  0  0  0  0  0  0  0  0  0
    5.2013    2.3244    3.9928 O   0  0  0  0  0  0  0  0  0  0  0  0
    5.0179   -0.1899    4.4597 C   0  0  1  0  0  0  0  0  0  0  0  0
    4.0932   -3.9214    3.3484 C   0  0  0  0  0  0  0  0  0  0  0  0
    4.2249   -5.8927    1.8722 C   0  0  0  0  0  0  0  0  0  0  0  0
   -0.4584    4.9187    2.9577 C   0  0  2  0  0  0  0  0  0  0  0  0
   -0.7255    2.4101    3.5356 C   0  0  2  0  0  0  0  0  0  0  0  0
    6.5672    2.7251    4.1780 C   0  0  2  0  0  0  0  0  0  0  0  0
    4.9168    0.0124    5.9071 O   0  0  0  0  0  0  0  0  0  0  0  0
    4.3005   -1.5417    4.1134 C   0  0  0  0  0  0  0  0  0  0  0  0
    6.5354   -0.3237    4.3026 C   0  0  0  0  0  0  0  0  0  0  0  0
    3.4155   -4.4231    4.2486 O   0  0  0  0  0  0  0  0  0  0  0  0
    5.1066   -2.8014    3.6683 C   0  0  2  0  0  0  0  0  0  0  0  0
   -1.3167    3.8267    3.6518 C   0  0  1  0  0  0  0  0  0  0  0  0
   -1.3778    5.9680    2.3101 C   0  0  0  0  0  0  0  0  0  0  0  0
    0.3024    2.0878    4.4790 O   0  0  0  0  0  0  0  0  0  0  0  0
   -1.7723    1.3288    3.8666 C   0  0  0  0  0  0  0  0  0  0  0  0
    6.7182    3.9592    4.9913 O   0  0  0  0  0  0  0  0  0  0  0  0
    7.2587    2.9319    2.8565 C   0  0  2  0  0  0  0  0  0  0  0  0
    3.6359    0.1873    6.4993 C   0  0  0  0  0  0  0  0  0  0  0  0
    6.2213   -2.7394    2.5957 C   0  0  0  0  0  0  0  0  0  0  0  0
   -1.5918    4.2018    5.0074 O   0  0  0  0  0  0  0  0  0  0  0  0
    1.3056    3.0372    4.7689 C   0  0  0  0  0  0  0  0  0  0  0  0
    7.3555    5.1696    4.5202 C   0  0  1  0  0  0  0  0  0  0  0  0
    8.7012    2.9443    3.0497 O   0  0  0  0  0  0  0  0  0  0  0  0
    6.7619    4.2760    2.2634 C   0  0  2  0  0  0  0  0  0  0  0  0
    7.3507    5.4269    3.0302 C   0  0  0  0  0  0  0  0  0  0  0  0
    6.7748    6.4271    5.1666 C   0  0  0  0  0  0  0  0  0  0  0  0
    5.3473    4.5813    1.9291 N   0  0  0  0  0  0  0  0  0  0  0  0
    4.1316    4.5026    2.8418 C   0  0  0  0  0  0  0  0  0  0  0  0
    5.1125    3.9237    0.6251 C   0  0  0  0  0  0  0  0  0  0  0  0
    3.9191    5.0533    4.2907 C   0  0  0  0  0  0  0  0  0  0  0  0
    3.2941    6.2745    4.5584 C   0  0  0  0  0  0  0  0  0  0  0  0
    4.1710    4.3194    5.4720 C   0  0  0  0  0  0  0  0  0  0  0  0
    3.3442    6.8573    5.8625 C   0  0  0  0  0  0  0  0  0  0  0  0
    4.2804    4.8776    6.7439 C   0  0  0  0  0  0  0  0  0  0  0  0
    4.0081    6.2152    6.9194 C   0  0  0  0  0  0  0  0  0  0  0  0
    4.6487    6.9335    8.0177 C   0  0  0  0  0  0  0  0  0  0  0  0
    4.7094    8.2979    8.1100 N   0  0  0  0  0  0  0  0  0  0  0  0
    5.5210    6.3936    8.9595 C   0  0  0  0  0  0  0  0  0  0  0  0
    5.5864    8.6214    9.0538 N   0  0  0  0  0  0  0  0  0  0  0  0
    6.0815    7.4775    9.5546 N   0  0  0  0  0  0  0  0  0  0  0  0
    6.9642    7.5087   10.7065 C   0  0  0  0  0  0  0  0  0  0  0  0
    6.1766    7.9720   11.9181 C   0  0  0  0  0  0  0  0  0  0  0  0
    6.9749    7.9555   13.1810 C   0  0  0  0  0  0  0  0  0  0  0  0
    8.1472    7.6540   13.2804 O   0  0  0  0  0  0  0  0  0  0  0  0
    6.2113    8.3480   14.2791 N   0  0  0  0  0  0  0  0  0  0  0  0
    6.8262    8.2976   15.5452 O   0  0  0  0  0  0  0  0  0  0  0  0
    3.3669    0.9531   -0.4193 H   0  0  0  0  0  0  0  0  0  0  0  0
    0.8933   -2.6546   -0.6080 H   0  0  0  0  0  0  0  0  0  0  0  0
    1.8463    0.7297    2.1538 H   0  0  0  0  0  0  0  0  0  0  0  0
    0.5757    1.8842   -0.9382 H   0  0  0  0  0  0  0  0  0  0  0  0
    1.8920    1.5881   -2.0341 H   0  0  0  0  0  0  0  0  0  0  0  0
    2.0281    2.9495   -0.9504 H   0  0  0  0  0  0  0  0  0  0  0  0
    1.3933   -3.5296   -2.8668 H   0  0  0  0  0  0  0  0  0  0  0  0
    2.8221   -2.4872   -2.9684 H   0  0  0  0  0  0  0  0  0  0  0  0
    4.6138    1.8456    1.6759 H   0  0  0  0  0  0  0  0  0  0  0  0
    1.2257   -5.0697   -0.5904 H   0  0  0  0  0  0  0  0  0  0  0  0
    1.8496   -4.6199    1.4812 H   0  0  0  0  0  0  0  0  0  0  0  0
    4.1711   -3.8226   -2.0318 H   0  0  0  0  0  0  0  0  0  0  0  0
    4.7373   -4.6456   -0.6390 H   0  0  0  0  0  0  0  0  0  0  0  0
    4.7032   -2.8616   -0.6383 H   0  0  0  0  0  0  0  0  0  0  0  0
    0.0199   -1.3716   -2.5843 H   0  0  0  0  0  0  0  0  0  0  0  0
    0.8362   -1.5575   -4.1490 H   0  0  0  0  0  0  0  0  0  0  0  0
    1.5120   -0.4763   -2.9380 H   0  0  0  0  0  0  0  0  0  0  0  0
    0.5397    3.2755    0.5051 H   0  0  0  0  0  0  0  0  0  0  0  0
    3.4985    1.3089    4.1422 H   0  0  0  0  0  0  0  0  0  0  0  0
    3.8250   -1.0100    1.5051 H   0  0  0  0  0  0  0  0  0  0  0  0
    5.4841   -0.4879    1.8554 H   0  0  0  0  0  0  0  0  0  0  0  0
    4.7713   -0.0686    0.3681 H   0  0  0  0  0  0  0  0  0  0  0  0
    1.3733   -2.4162    1.4889 H   0  0  0  0  0  0  0  0  0  0  0  0
    4.7583   -3.9593    1.3464 H   0  0  0  0  0  0  0  0  0  0  0  0
   -0.1112    1.1794    1.8629 H   0  0  0  0  0  0  0  0  0  0  0  0
   -1.2778    2.4133    1.4770 H   0  0  0  0  0  0  0  0  0  0  0  0
    3.5332   -6.4581    2.5037 H   0  0  0  0  0  0  0  0  0  0  0  0
    5.2359   -6.0812    2.2566 H   0  0  0  0  0  0  0  0  0  0  0  0
    4.1849   -6.2996    0.8549 H   0  0  0  0  0  0  0  0  0  0  0  0
    0.1004    5.4762    3.7172 H   0  0  0  0  0  0  0  0  0  0  0  0
    7.0956    2.0327    4.8145 H   0  0  0  0  0  0  0  0  0  0  0  0
    3.4487   -1.3493    3.4623 H   0  0  0  0  0  0  0  0  0  0  0  0
    3.7966   -1.8973    5.0207 H   0  0  0  0  0  0  0  0  0  0  0  0
    7.0962    0.2827    5.0040 H   0  0  0  0  0  0  0  0  0  0  0  0
    6.8681   -0.0955    3.2904 H   0  0  0  0  0  0  0  0  0  0  0  0
    6.8835   -1.3066    4.6187 H   0  0  0  0  0  0  0  0  0  0  0  0
    5.6271   -3.1623    4.5693 H   0  0  0  0  0  0  0  0  0  0  0  0
   -2.2996    3.8122    3.1631 H   0  0  0  0  0  0  0  0  0  0  0  0
   -1.9889    5.5224    1.5167 H   0  0  0  0  0  0  0  0  0  0  0  0
   -0.7957    6.7705    1.8439 H   0  0  0  0  0  0  0  0  0  0  0  0
   -2.0497    6.4163    3.0509 H   0  0  0  0  0  0  0  0  0  0  0  0
   -1.2947    0.3377    3.8573 H   0  0  0  0  0  0  0  0  0  0  0  0
   -2.5974    1.3092    3.1494 H   0  0  0  0  0  0  0  0  0  0  0  0
   -2.1778    1.4590    4.8741 H   0  0  0  0  0  0  0  0  0  0  0  0
    7.0590    2.0961    2.1747 H   0  0  0  0  0  0  0  0  0  0  0  0
    3.7661    0.1406    7.5838 H   0  0  0  0  0  0  0  0  0  0  0  0
    2.9156   -0.5868    6.2252 H   0  0  0  0  0  0  0  0  0  0  0  0
    3.2299    1.1683    6.2669 H   0  0  0  0  0  0  0  0  0  0  0  0
    5.8689   -2.4122    1.6167 H   0  0  0  0  0  0  0  0  0  0  0  0
    6.6362   -3.7450    2.4564 H   0  0  0  0  0  0  0  0  0  0  0  0
    7.0846   -2.1307    2.8288 H   0  0  0  0  0  0  0  0  0  0  0  0
   -1.3540    3.4457    5.5758 H   0  0  0  0  0  0  0  0  0  0  0  0
    1.8801    2.6619    5.6119 H   0  0  0  0  0  0  0  0  0  0  0  0
    0.9201    4.0100    5.0609 H   0  0  0  0  0  0  0  0  0  0  0  0
    1.9822    3.1356    3.9394 H   0  0  0  0  0  0  0  0  0  0  0  0
    8.3942    5.1305    4.8685 H   0  0  0  0  0  0  0  0  0  0  0  0
    8.8729    3.2094    3.9852 H   0  0  0  0  0  0  0  0  0  0  0  0
    7.3202    4.3417    1.3125 H   0  0  0  0  0  0  0  0  0  0  0  0
    8.3883    5.6014    2.7089 H   0  0  0  0  0  0  0  0  0  0  0  0
    6.8472    6.3640    2.7483 H   0  0  0  0  0  0  0  0  0  0  0  0
    5.7891    6.6366    4.7583 H   0  0  0  0  0  0  0  0  0  0  0  0
    7.3490    7.3284    4.9314 H   0  0  0  0  0  0  0  0  0  0  0  0
    6.7010    6.3249    6.2450 H   0  0  0  0  0  0  0  0  0  0  0  0
    3.7978    3.4830    2.8733 H   0  0  0  0  0  0  0  0  0  0  0  0
    3.3472    5.0182    2.2660 H   0  0  0  0  0  0  0  0  0  0  0  0
    4.0561    3.7947    0.3768 H   0  0  0  0  0  0  0  0  0  0  0  0
    5.5977    2.9408    0.5516 H   0  0  0  0  0  0  0  0  0  0  0  0
    5.5774    4.5011   -0.1786 H   0  0  0  0  0  0  0  0  0  0  0  0
    2.8149    6.8197    3.7532 H   0  0  0  0  0  0  0  0  0  0  0  0
    4.4257    3.2766    5.4936 H   0  0  0  0  0  0  0  0  0  0  0  0
    2.9543    7.8615    5.9959 H   0  0  0  0  0  0  0  0  0  0  0  0
    4.7517    4.2679    7.5096 H   0  0  0  0  0  0  0  0  0  0  0  0
    5.8319    5.3833    9.1862 H   0  0  0  0  0  0  0  0  0  0  0  0
    7.8032    8.1776   10.4726 H   0  0  0  0  0  0  0  0  0  0  0  0
    7.3780    6.5006   10.8491 H   0  0  0  0  0  0  0  0  0  0  0  0
    5.3046    7.3202   12.0569 H   0  0  0  0  0  0  0  0  0  0  0  0
    5.8104    8.9945   11.7573 H   0  0  0  0  0  0  0  0  0  0  0  0
    5.2028    8.4267   14.2616 H   0  0  0  0  0  0  0  0  0  0  0  0
    7.7409    8.0008   15.3277 H   0  0  0  0  0  0  0  0  0  0  0  0
  1  2  2  0  0  0  0
  2  3  1  0  0  0  0
  2  4  1  0  0  0  0
  3  5  1  0  0  0  0
  4  6  1  1  0  0  0
  4  7  1  0  0  0  0
  4 70  1  0  0  0  0
  5  8  1  1  0  0  0
  5  9  1  0  0  0  0
  5 71  1  0  0  0  0
  6 10  1  0  0  0  0
  6 11  1  1  0  0  0
  6 72  1  0  0  0  0
  7 73  1  0  0  0  0
  7 74  1  0  0  0  0
  7 75  1  0  0  0  0
  8 12  1  0  0  0  0
  8 13  1  1  0  0  0
  8 14  1  0  0  0  0
  9 15  1  0  0  0  0
  9 76  1  0  0  0  0
  9 77  1  0  0  0  0
 11 17  1  1  0  0  0
 11 18  1  0  0  0  0
 11 78  1  0  0  0  0
 12 79  1  0  0  0  0
 13 20  1  1  0  0  0
 13 19  1  0  0  0  0
 13 80  1  0  0  0  0
 14 81  1  0  0  0  0
 14 82  1  0  0  0  0
 14 83  1  0  0  0  0
 15 84  1  0  0  0  0
 15 85  1  0  0  0  0
 15 86  1  0  0  0  0
 16 10  1  0  0  0  0
 16 21  1  0  0  0  0
 16 22  1  0  0  0  0
 16 87  1  6  0  0  0
 17 23  1  0  0  0  0
 17 24  1  1  0  0  0
 17 88  1  0  0  0  0
 18 89  1  0  0  0  0
 18 90  1  0  0  0  0
 18 91  1  0  0  0  0
 19 92  1  0  0  0  0
 20 25  1  0  0  0  0
 20 26  1  0  0  0  0
 20 93  1  6  0  0  0
 21 27  1  0  0  0  0
 22 28  1  0  0  0  0
 22 94  1  0  0  0  0
 22 95  1  0  0  0  0
 24 30  1  1  0  0  0
 24 31  1  0  0  0  0
 24 32  1  0  0  0  0
 25 33  2  0  0  0  0
 25 34  1  0  0  0  0
 26 96  1  0  0  0  0
 26 97  1  0  0  0  0
 26 98  1  0  0  0  0
 27 35  1  1  0  0  0
 27 36  1  0  0  0  0
 27 99  1  0  0  0  0
 28 37  1  0  0  0  0
 28 38  1  0  0  0  0
 28 35  1  1  0  0  0
 29 23  1  0  0  0  0
 29 39  1  0  0  0  0
 29 40  1  6  0  0  0
 29100  1  0  0  0  0
 30 41  1  0  0  0  0
 31 34  1  0  0  0  0
 31101  1  0  0  0  0
 31102  1  0  0  0  0
 32103  1  0  0  0  0
 32104  1  0  0  0  0
 32105  1  0  0  0  0
 34 42  1  0  0  0  0
 34106  1  1  0  0  0
 35 43  1  0  0  0  0
 35107  1  6  0  0  0
 36108  1  0  0  0  0
 36109  1  0  0  0  0
 36110  1  0  0  0  0
 37 44  1  0  0  0  0
 38111  1  0  0  0  0
 38112  1  0  0  0  0
 38113  1  0  0  0  0
 39 45  1  0  0  0  0
 40 47  1  6  0  0  0
 40 46  1  0  0  0  0
 40114  1  0  0  0  0
 41115  1  0  0  0  0
 41116  1  0  0  0  0
 41117  1  0  0  0  0
 42118  1  0  0  0  0
 42119  1  0  0  0  0
 42120  1  0  0  0  0
 43121  1  0  0  0  0
 44122  1  0  0  0  0
 44123  1  0  0  0  0
 44124  1  0  0  0  0
 45 48  1  0  0  0  0
 45 49  1  0  0  0  0
 45125  1  1  0  0  0
 46126  1  0  0  0  0
 47 48  1  0  0  0  0
 47 50  1  0  0  0  0
 47127  1  6  0  0  0
 48128  1  0  0  0  0
 48129  1  0  0  0  0
 49130  1  0  0  0  0
 49131  1  0  0  0  0
 49132  1  0  0  0  0
 50 51  1  0  0  0  0
 50 52  1  0  0  0  0
 51 53  1  0  0  0  0
 51133  1  0  0  0  0
 51134  1  0  0  0  0
 52135  1  0  0  0  0
 52136  1  0  0  0  0
 52137  1  0  0  0  0
 53 54  2  0  0  0  0
 53 55  1  0  0  0  0
 54 56  1  0  0  0  0
 54138  1  0  0  0  0
 55 57  2  0  0  0  0
 55139  1  0  0  0  0
 56 58  2  0  0  0  0
 56140  1  0  0  0  0
 57 58  1  0  0  0  0
 57141  1  0  0  0  0
 58 59  1  0  0  0  0
 59 60  1  0  0  0  0
 59 61  2  0  0  0  0
 60 62  2  0  0  0  0
 61 63  1  0  0  0  0
 61142  1  0  0  0  0
 62 63  1  0  0  0  0
 63 64  1  0  0  0  0
 64 65  1  0  0  0  0
 64143  1  0  0  0  0
 64144  1  0  0  0  0
 65 66  1  0  0  0  0
 65145  1  0  0  0  0
 65146  1  0  0  0  0
 66 67  2  0  0  0  0
 66 68  1  0  0  0  0
 68 69  1  0  0  0  0
 68147  1  0  0  0  0
 69148  1  0  0  0  0
M  END
>  <Molecule Name>
2337380

>  <MolRegNo>
2337380

>  <m>
=

>  <Value>
919

>  <Unit>
nM

>  <Type>
IC50

>  <pValue>
6.04

>  <Ligand Efficiency>
0.12

>  <Binding Efficiency>
6.17

>  <Surface Efficiency>
2.3

>  <Assay Index>
977531

>  <Assay Category>


>  <Assay Organism>
Homo sapiens

>  <Target ID>
11307

>  <Target Name>
Histone deacetylase 6

>  <Target Organism>
Homo sapiens

>  <Target Description>
Target is a single protein chain

>  <Sequence Accession>
Q9UBN7

>  <Reference>
Bioorg. Med. Chem. 23 (24), 7543-7564 (2015)

>  <Pubmed ID>
26585275

>  <DOI>
10.1016/j.bmc.2015.10.045

$$$$
2337357
 OpenBabel03252423443D

151155  0  0  0  0  0  0  0  0999 V2000
    0.5664   -0.5229    0.3541 O   0  0  0  0  0  0  0  0  0  0  0  0
    1.6980   -0.2632   -0.0347 C   0  0  0  0  0  0  0  0  0  0  0  0
    2.4988   -1.1906   -0.6496 O   0  0  0  0  0  0  0  0  0  0  0  0
    2.3283    1.1366    0.0716 C   0  0  2  0  0  0  0  0  0  0  0  0
    1.8862   -2.4767   -0.9971 C   0  0  2  0  0  0  0  0  0  0  0  0
    2.4110    1.5769    1.6423 C   0  0  2  0  0  0  0  0  0  0  0  0
    1.6031    1.9910   -0.9785 C   0  0  0  0  0  0  0  0  0  0  0  0
    2.6816   -3.7215   -0.4090 C   0  0  2  0  0  0  0  0  0  0  0  0
    1.7664   -2.5190   -2.5390 C   0  0  0  0  0  0  0  0  0  0  0  0
    1.9590    2.9123    1.9399 O   0  0  0  0  0  0  0  0  0  0  0  0
    3.8857    1.3630    2.2983 C   0  0  1  0  0  0  0  0  0  0  0  0
    2.0727   -4.9320   -0.9220 O   0  0  0  0  0  0  0  0  0  0  0  0
    2.6286   -3.8452    1.1863 C   0  0  2  0  0  0  0  0  0  0  0  0
    4.1044   -3.7338   -0.9947 C   0  0  0  0  0  0  0  0  0  0  0  0
    0.9087   -1.3933   -3.1006 C   0  0  0  0  0  0  0  0  0  0  0  0
    0.5946    3.2293    1.6328 C   0  0  2  0  0  0  0  0  0  0  0  0
    3.9853    1.2845    3.9917 C   0  0  2  0  0  0  0  0  0  0  0  0
    4.4686    0.1443    1.5727 C   0  0  0  0  0  0  0  0  0  0  0  0
    2.2280   -2.6092    1.7761 O   0  0  0  0  0  0  0  0  0  0  0  0
    3.9462   -4.2905    1.8738 C   0  0  1  0  0  0  0  0  0  0  0  0
    0.2667    4.5770    1.9289 O   0  0  0  0  0  0  0  0  0  0  0  0
   -0.4534    2.2192    2.0583 C   0  0  0  0  0  0  0  0  0  0  0  0
    4.6223    2.5388    4.4935 O   0  0  0  0  0  0  0  0  0  0  0  0
    4.7479   -0.0324    4.5637 C   0  0  1  0  0  0  0  0  0  0  0  0
    4.0758   -3.8131    3.3318 C   0  0  0  0  0  0  0  0  0  0  0  0
    4.2244   -5.7954    1.8424 C   0  0  0  0  0  0  0  0  0  0  0  0
   -0.6133    4.8888    3.0000 C   0  0  2  0  0  0  0  0  0  0  0  0
   -0.8410    2.3600    3.5283 C   0  0  2  0  0  0  0  0  0  0  0  0
    5.0067    2.8029    5.8761 C   0  0  2  0  0  0  0  0  0  0  0  0
    4.6661   -0.1172    6.0194 O   0  0  0  0  0  0  0  0  0  0  0  0
    4.1577   -1.4105    4.0737 C   0  0  0  0  0  0  0  0  0  0  0  0
    6.2660    0.1468    4.3260 C   0  0  0  0  0  0  0  0  0  0  0  0
    3.4089   -4.3485    4.2246 O   0  0  0  0  0  0  0  0  0  0  0  0
    5.0349   -2.6392    3.6784 C   0  0  2  0  0  0  0  0  0  0  0  0
   -1.4849    3.7632    3.6204 C   0  0  1  0  0  0  0  0  0  0  0  0
   -1.5572    5.9579    2.4195 C   0  0  0  0  0  0  0  0  0  0  0  0
    0.3299    2.1890    4.3344 O   0  0  0  0  0  0  0  0  0  0  0  0
   -1.8200    1.2069    3.8108 C   0  0  0  0  0  0  0  0  0  0  0  0
    3.9440    3.2068    6.7454 O   0  0  0  0  0  0  0  0  0  0  0  0
    6.2112    3.8017    6.1339 C   0  0  2  0  0  0  0  0  0  0  0  0
    3.3803    0.0279    6.6138 C   0  0  0  0  0  0  0  0  0  0  0  0
    6.1443   -2.5150    2.6296 C   0  0  0  0  0  0  0  0  0  0  0  0
   -1.8535    4.1643    4.9446 O   0  0  0  0  0  0  0  0  0  0  0  0
    0.1297    2.0994    5.7384 C   0  0  0  0  0  0  0  0  0  0  0  0
    3.5790    4.5812    6.7885 C   0  0  1  0  0  0  0  0  0  0  0  0
    6.5492    3.7580    7.5597 O   0  0  0  0  0  0  0  0  0  0  0  0
    5.9071    5.3081    5.7746 C   0  0  2  0  0  0  0  0  0  0  0  0
    4.6388    5.6666    6.5610 C   0  0  0  0  0  0  0  0  0  0  0  0
    2.3767    4.8240    5.9010 C   0  0  0  0  0  0  0  0  0  0  0  0
    6.1196    5.6813    4.3549 N   0  0  0  0  0  0  0  0  0  0  0  0
    5.6922    6.9907    3.8240 C   0  0  0  0  0  0  0  0  0  0  0  0
    5.6648    4.6772    3.4050 C   0  0  0  0  0  0  0  0  0  0  0  0
    6.2194    8.2396    4.4819 C   0  0  0  0  0  0  0  0  0  0  0  0
    7.4311    8.8466    4.1071 C   0  0  0  0  0  0  0  0  0  0  0  0
    5.4501    8.8287    5.4838 C   0  0  0  0  0  0  0  0  0  0  0  0
    7.9072    9.9467    4.8268 C   0  0  0  0  0  0  0  0  0  0  0  0
    5.9332    9.9134    6.2132 C   0  0  0  0  0  0  0  0  0  0  0  0
    7.1917   10.4226    5.9403 C   0  0  0  0  0  0  0  0  0  0  0  0
    7.7728   11.3004    6.9245 C   0  0  0  0  0  0  0  0  0  0  0  0
    7.0663   12.2213    7.6453 N   0  0  0  0  0  0  0  0  0  0  0  0
    9.0029   11.0956    7.5158 C   0  0  0  0  0  0  0  0  0  0  0  0
    7.8119   12.5908    8.6704 N   0  0  0  0  0  0  0  0  0  0  0  0
    8.9534   11.8839    8.6169 N   0  0  0  0  0  0  0  0  0  0  0  0
    9.9326   11.9435    9.6801 C   0  0  0  0  0  0  0  0  0  0  0  0
    9.4341   11.4369   11.0413 C   0  0  0  0  0  0  0  0  0  0  0  0
    9.0017    9.9676   11.0643 C   0  0  0  0  0  0  0  0  0  0  0  0
   10.1217    9.0292   10.6664 C   0  0  0  0  0  0  0  0  0  0  0  0
   11.3141    9.3173   10.7514 O   0  0  0  0  0  0  0  0  0  0  0  0
    9.7011    7.8120   10.2000 N   0  0  0  0  0  0  0  0  0  0  0  0
   10.7225    6.8867    9.8866 O   0  0  0  0  0  0  0  0  0  0  0  0
    3.3335    1.1128   -0.3492 H   0  0  0  0  0  0  0  0  0  0  0  0
    0.8588   -2.5507   -0.6164 H   0  0  0  0  0  0  0  0  0  0  0  0
    1.7911    0.8829    2.2169 H   0  0  0  0  0  0  0  0  0  0  0  0
    0.5123    1.9245   -0.9005 H   0  0  0  0  0  0  0  0  0  0  0  0
    1.8318    1.6231   -1.9874 H   0  0  0  0  0  0  0  0  0  0  0  0
    1.9338    3.0342   -0.9584 H   0  0  0  0  0  0  0  0  0  0  0  0
    1.3396   -3.4758   -2.8591 H   0  0  0  0  0  0  0  0  0  0  0  0
    2.7547   -2.4212   -3.0000 H   0  0  0  0  0  0  0  0  0  0  0  0
    4.4870    2.2352    2.0126 H   0  0  0  0  0  0  0  0  0  0  0  0
    1.1583   -4.9903   -0.5913 H   0  0  0  0  0  0  0  0  0  0  0  0
    1.8567   -4.5814    1.4561 H   0  0  0  0  0  0  0  0  0  0  0  0
    4.0874   -3.8086   -2.0870 H   0  0  0  0  0  0  0  0  0  0  0  0
    4.6621   -4.6257   -0.6922 H   0  0  0  0  0  0  0  0  0  0  0  0
    4.6717   -2.8413   -0.7183 H   0  0  0  0  0  0  0  0  0  0  0  0
   -0.0670   -1.3494   -2.6083 H   0  0  0  0  0  0  0  0  0  0  0  0
    0.7469   -1.5447   -4.1723 H   0  0  0  0  0  0  0  0  0  0  0  0
    1.4070   -0.4284   -2.9795 H   0  0  0  0  0  0  0  0  0  0  0  0
    0.5321    3.2721    0.5573 H   0  0  0  0  0  0  0  0  0  0  0  0
    2.9542    1.3143    4.3533 H   0  0  0  0  0  0  0  0  0  0  0  0
    3.7554   -0.6783    1.5400 H   0  0  0  0  0  0  0  0  0  0  0  0
    5.3821   -0.2140    1.9948 H   0  0  0  0  0  0  0  0  0  0  0  0
    4.7607    0.3463    0.5418 H   0  0  0  0  0  0  0  0  0  0  0  0
    1.3748   -2.3186    1.4044 H   0  0  0  0  0  0  0  0  0  0  0  0
    4.7579   -3.8440    1.3176 H   0  0  0  0  0  0  0  0  0  0  0  0
   -0.1451    1.1989    1.8506 H   0  0  0  0  0  0  0  0  0  0  0  0
   -1.3509    2.3902    1.4416 H   0  0  0  0  0  0  0  0  0  0  0  0
    3.5547   -6.3530    2.5042 H   0  0  0  0  0  0  0  0  0  0  0  0
    5.2487   -5.9830    2.1926 H   0  0  0  0  0  0  0  0  0  0  0  0
    4.1401   -6.2120    0.8362 H   0  0  0  0  0  0  0  0  0  0  0  0
   -0.0083    5.3684    3.7769 H   0  0  0  0  0  0  0  0  0  0  0  0
    5.3835    1.8875    6.3208 H   0  0  0  0  0  0  0  0  0  0  0  0
    3.3576   -1.2373    3.3580 H   0  0  0  0  0  0  0  0  0  0  0  0
    3.5788   -1.8250    4.9083 H   0  0  0  0  0  0  0  0  0  0  0  0
    6.6612    1.0318    4.8290 H   0  0  0  0  0  0  0  0  0  0  0  0
    6.5573    0.2886    3.2871 H   0  0  0  0  0  0  0  0  0  0  0  0
    6.8331   -0.6887    4.7434 H   0  0  0  0  0  0  0  0  0  0  0  0
    5.5509   -2.9626    4.5932 H   0  0  0  0  0  0  0  0  0  0  0  0
   -2.4296    3.7142    3.0660 H   0  0  0  0  0  0  0  0  0  0  0  0
   -2.1633    5.5292    1.6088 H   0  0  0  0  0  0  0  0  0  0  0  0
   -0.9960    6.7831    1.9678 H   0  0  0  0  0  0  0  0  0  0  0  0
   -2.2359    6.3606    3.1763 H   0  0  0  0  0  0  0  0  0  0  0  0
   -1.2651    0.2604    3.8729 H   0  0  0  0  0  0  0  0  0  0  0  0
   -2.5694    1.1032    3.0201 H   0  0  0  0  0  0  0  0  0  0  0  0
   -2.3494    1.3315    4.7574 H   0  0  0  0  0  0  0  0  0  0  0  0
    7.1183    3.4720    5.6203 H   0  0  0  0  0  0  0  0  0  0  0  0
    3.4917   -0.1018    7.6926 H   0  0  0  0  0  0  0  0  0  0  0  0
    2.6536   -0.7005    6.2513 H   0  0  0  0  0  0  0  0  0  0  0  0
    2.9870    1.0261    6.4508 H   0  0  0  0  0  0  0  0  0  0  0  0
    5.7782   -2.1876    1.6530 H   0  0  0  0  0  0  0  0  0  0  0  0
    6.6179   -3.4926    2.4698 H   0  0  0  0  0  0  0  0  0  0  0  0
    6.9534   -1.8479    2.9183 H   0  0  0  0  0  0  0  0  0  0  0  0
   -2.2714    3.4111    5.3901 H   0  0  0  0  0  0  0  0  0  0  0  0
    1.0818    1.8444    6.2011 H   0  0  0  0  0  0  0  0  0  0  0  0
   -0.5756    1.3135    6.0111 H   0  0  0  0  0  0  0  0  0  0  0  0
   -0.1919    3.0510    6.1623 H   0  0  0  0  0  0  0  0  0  0  0  0
    3.2152    4.7214    7.8169 H   0  0  0  0  0  0  0  0  0  0  0  0
    5.7266    3.5371    8.0397 H   0  0  0  0  0  0  0  0  0  0  0  0
    6.6974    5.8802    6.2921 H   0  0  0  0  0  0  0  0  0  0  0  0
    4.9668    5.9885    7.5652 H   0  0  0  0  0  0  0  0  0  0  0  0
    4.1498    6.5504    6.1608 H   0  0  0  0  0  0  0  0  0  0  0  0
    2.6533    4.8194    4.8502 H   0  0  0  0  0  0  0  0  0  0  0  0
    1.8974    5.7752    6.1522 H   0  0  0  0  0  0  0  0  0  0  0  0
    1.6562    4.0337    6.0668 H   0  0  0  0  0  0  0  0  0  0  0  0
    4.5984    7.0418    3.7476 H   0  0  0  0  0  0  0  0  0  0  0  0
    6.0561    7.0530    2.7869 H   0  0  0  0  0  0  0  0  0  0  0  0
    5.8551    4.9567    2.3658 H   0  0  0  0  0  0  0  0  0  0  0  0
    4.5843    4.5331    3.4977 H   0  0  0  0  0  0  0  0  0  0  0  0
    6.2331    3.7532    3.5326 H   0  0  0  0  0  0  0  0  0  0  0  0
    8.0027    8.4562    3.2799 H   0  0  0  0  0  0  0  0  0  0  0  0
    4.4637    8.4486    5.7296 H   0  0  0  0  0  0  0  0  0  0  0  0
    8.8436   10.4063    4.5419 H   0  0  0  0  0  0  0  0  0  0  0  0
    5.3408   10.2807    7.0494 H   0  0  0  0  0  0  0  0  0  0  0  0
    9.8056   10.3930    7.3176 H   0  0  0  0  0  0  0  0  0  0  0  0
   10.2389   12.9894    9.7609 H   0  0  0  0  0  0  0  0  0  0  0  0
   10.8112   11.3759    9.3477 H   0  0  0  0  0  0  0  0  0  0  0  0
    8.5884   12.0720   11.3481 H   0  0  0  0  0  0  0  0  0  0  0  0
   10.2390   11.5854   11.7725 H   0  0  0  0  0  0  0  0  0  0  0  0
    8.1349    9.8087   10.4145 H   0  0  0  0  0  0  0  0  0  0  0  0
    8.7026    9.6999   12.0844 H   0  0  0  0  0  0  0  0  0  0  0  0
    8.7658    7.4378   10.3218 H   0  0  0  0  0  0  0  0  0  0  0  0
   11.5391    7.3995   10.0735 H   0  0  0  0  0  0  0  0  0  0  0  0
  1  2  2  0  0  0  0
  2  3  1  0  0  0  0
  2  4  1  0  0  0  0
  3  5  1  0  0  0  0
  4  6  1  1  0  0  0
  4  7  1  0  0  0  0
  4 71  1  0  0  0  0
  5  8  1  1  0  0  0
  5  9  1  0  0  0  0
  5 72  1  0  0  0  0
  6 10  1  0  0  0  0
  6 11  1  1  0  0  0
  6 73  1  0  0  0  0
  7 74  1  0  0  0  0
  7 75  1  0  0  0  0
  7 76  1  0  0  0  0
  8 12  1  0  0  0  0
  8 13  1  1  0  0  0
  8 14  1  0  0  0  0
  9 15  1  0  0  0  0
  9 77  1  0  0  0  0
  9 78  1  0  0  0  0
 11 17  1  1  0  0  0
 11 18  1  0  0  0  0
 11 79  1  0  0  0  0
 12 80  1  0  0  0  0
 13 20  1  1  0  0  0
 13 19  1  0  0  0  0
 13 81  1  0  0  0  0
 14 82  1  0  0  0  0
 14 83  1  0  0  0  0
 14 84  1  0  0  0  0
 15 85  1  0  0  0  0
 15 86  1  0  0  0  0
 15 87  1  0  0  0  0
 16 10  1  0  0  0  0
 16 21  1  0  0  0  0
 16 22  1  0  0  0  0
 16 88  1  6  0  0  0
 17 23  1  0  0  0  0
 17 24  1  1  0  0  0
 17 89  1  0  0  0  0
 18 90  1  0  0  0  0
 18 91  1  0  0  0  0
 18 92  1  0  0  0  0
 19 93  1  0  0  0  0
 20 25  1  0  0  0  0
 20 26  1  0  0  0  0
 20 94  1  6  0  0  0
 21 27  1  0  0  0  0
 22 28  1  0  0  0  0
 22 95  1  0  0  0  0
 22 96  1  0  0  0  0
 24 30  1  1  0  0  0
 24 31  1  0  0  0  0
 24 32  1  0  0  0  0
 25 33  2  0  0  0  0
 25 34  1  0  0  0  0
 26 97  1  0  0  0  0
 26 98  1  0  0  0  0
 26 99  1  0  0  0  0
 27 35  1  1  0  0  0
 27 36  1  0  0  0  0
 27100  1  0  0  0  0
 28 37  1  0  0  0  0
 28 38  1  0  0  0  0
 28 35  1  1  0  0  0
 29 23  1  0  0  0  0
 29 39  1  0  0  0  0
 29 40  1  1  0  0  0
 29101  1  0  0  0  0
 30 41  1  0  0  0  0
 31 34  1  0  0  0  0
 31102  1  0  0  0  0
 31103  1  0  0  0  0
 32104  1  0  0  0  0
 32105  1  0  0  0  0
 32106  1  0  0  0  0
 34 42  1  0  0  0  0
 34107  1  1  0  0  0
 35 43  1  0  0  0  0
 35108  1  6  0  0  0
 36109  1  0  0  0  0
 36110  1  0  0  0  0
 36111  1  0  0  0  0
 37 44  1  0  0  0  0
 38112  1  0  0  0  0
 38113  1  0  0  0  0
 38114  1  0  0  0  0
 39 45  1  0  0  0  0
 40 47  1  6  0  0  0
 40 46  1  0  0  0  0
 40115  1  0  0  0  0
 41116  1  0  0  0  0
 41117  1  0  0  0  0
 41118  1  0  0  0  0
 42119  1  0  0  0  0
 42120  1  0  0  0  0
 42121  1  0  0  0  0
 43122  1  0  0  0  0
 44123  1  0  0  0  0
 44124  1  0  0  0  0
 44125  1  0  0  0  0
 45 48  1  0  0  0  0
 45 49  1  0  0  0  0
 45126  1  1  0  0  0
 46127  1  0  0  0  0
 47 48  1  0  0  0  0
 47 50  1  0  0  0  0
 47128  1  1  0  0  0
 48129  1  0  0  0  0
 48130  1  0  0  0  0
 49131  1  0  0  0  0
 49132  1  0  0  0  0
 49133  1  0  0  0  0
 50 51  1  0  0  0  0
 50 52  1  0  0  0  0
 51 53  1  0  0  0  0
 51134  1  0  0  0  0
 51135  1  0  0  0  0
 52136  1  0  0  0  0
 52137  1  0  0  0  0
 52138  1  0  0  0  0
 53 54  2  0  0  0  0
 53 55  1  0  0  0  0
 54 56  1  0  0  0  0
 54139  1  0  0  0  0
 55 57  2  0  0  0  0
 55140  1  0  0  0  0
 56 58  2  0  0  0  0
 56141  1  0  0  0  0
 57 58  1  0  0  0  0
 57142  1  0  0  0  0
 58 59  1  0  0  0  0
 59 60  1  0  0  0  0
 59 61  2  0  0  0  0
 60 62  2  0  0  0  0
 61 63  1  0  0  0  0
 61143  1  0  0  0  0
 62 63  1  0  0  0  0
 63 64  1  0  0  0  0
 64 65  1  0  0  0  0
 64144  1  0  0  0  0
 64145  1  0  0  0  0
 65 66  1  0  0  0  0
 65146  1  0  0  0  0
 65147  1  0  0  0  0
 66 67  1  0  0  0  0
 66148  1  0  0  0  0
 66149  1  0  0  0  0
 67 68  2  0  0  0  0
 67 69  1  0  0  0  0
 69 70  1  0  0  0  0
 69150  1  0  0  0  0
 70151  1  0  0  0  0
M  END
>  <Molecule Name>
2337357

>  <MolRegNo>
2337357

>  <m>
=

>  <Value>
70.9

>  <Unit>
nM

>  <Type>
IC50

>  <pValue>
7.15

>  <Ligand Efficiency>
0.14

>  <Binding Efficiency>
7.21

>  <Surface Efficiency>
2.72

>  <Assay Index>
977531

>  <Assay Category>


>  <Assay Organism>
Homo sapiens

>  <Target ID>
11307

>  <Target Name>
Histone deacetylase 6

>  <Target Organism>
Homo sapiens

>  <Target Description>
Target is a single protein chain

>  <Sequence Accession>
Q9UBN7

>  <Reference>
Bioorg. Med. Chem. 23 (24), 7543-7564 (2015)

>  <Pubmed ID>
26585275

>  <DOI>
10.1016/j.bmc.2015.10.045

$$$$
2337331
 OpenBabel03252423443D

154158  0  0  0  0  0  0  0  0999 V2000
    0.6375   -0.3154    0.2475 O   0  0  0  0  0  0  0  0  0  0  0  0
    1.7991   -0.0966   -0.0755 C   0  0  0  0  0  0  0  0  0  0  0  0
    2.6138   -1.0551   -0.6098 O   0  0  0  0  0  0  0  0  0  0  0  0
    2.4651    1.2807    0.0284 C   0  0  2  0  0  0  0  0  0  0  0  0
    1.9858   -2.3287   -0.9511 C   0  0  2  0  0  0  0  0  0  0  0  0
    2.5186    1.7499    1.5795 C   0  0  2  0  0  0  0  0  0  0  0  0
    1.7895    2.1510   -1.0411 C   0  0  0  0  0  0  0  0  0  0  0  0
    2.7810   -3.5705   -0.3658 C   0  0  2  0  0  0  0  0  0  0  0  0
    1.8534   -2.3672   -2.4915 C   0  0  0  0  0  0  0  0  0  0  0  0
    2.0707    3.1101    1.7357 O   0  0  0  0  0  0  0  0  0  0  0  0
    3.9924    1.5158    2.2960 C   0  0  1  0  0  0  0  0  0  0  0  0
    2.1664   -4.7804   -0.8691 O   0  0  0  0  0  0  0  0  0  0  0  0
    2.7361   -3.6847    1.2310 C   0  0  2  0  0  0  0  0  0  0  0  0
    4.2003   -3.5798   -0.9605 C   0  0  0  0  0  0  0  0  0  0  0  0
    1.0050   -1.2321   -3.0494 C   0  0  0  0  0  0  0  0  0  0  0  0
    0.6786    3.4181    1.4816 C   0  0  2  0  0  0  0  0  0  0  0  0
    4.1448    1.4106    4.0110 C   0  0  2  0  0  0  0  0  0  0  0  0
    4.5392    0.2747    1.5894 C   0  0  0  0  0  0  0  0  0  0  0  0
    2.3589   -2.4398    1.8167 O   0  0  0  0  0  0  0  0  0  0  0  0
    4.0589   -4.1360    1.9077 C   0  0  1  0  0  0  0  0  0  0  0  0
    0.3830    4.7442    1.8990 O   0  0  0  0  0  0  0  0  0  0  0  0
   -0.3537    2.3726    1.8855 C   0  0  0  0  0  0  0  0  0  0  0  0
    4.7234    2.7005    4.5236 O   0  0  0  0  0  0  0  0  0  0  0  0
    4.9754    0.1151    4.5590 C   0  0  1  0  0  0  0  0  0  0  0  0
    4.2107   -3.6615    3.3659 C   0  0  0  0  0  0  0  0  0  0  0  0
    4.3413   -5.6395    1.8611 C   0  0  0  0  0  0  0  0  0  0  0  0
   -0.5893    5.0291    2.8956 C   0  0  2  0  0  0  0  0  0  0  0  0
   -0.7766    2.4678    3.3411 C   0  0  2  0  0  0  0  0  0  0  0  0
    5.1204    2.9732    5.9086 C   0  0  2  0  0  0  0  0  0  0  0  0
    4.7878    0.1497    6.0024 O   0  0  0  0  0  0  0  0  0  0  0  0
    4.3237   -1.2464    4.1028 C   0  0  0  0  0  0  0  0  0  0  0  0
    6.4708    0.3489    4.2573 C   0  0  0  0  0  0  0  0  0  0  0  0
    3.5734   -4.2080    4.2730 O   0  0  0  0  0  0  0  0  0  0  0  0
    5.1747   -2.4898    3.6942 C   0  0  2  0  0  0  0  0  0  0  0  0
   -1.4085    3.8649    3.5260 C   0  0  1  0  0  0  0  0  0  0  0  0
   -1.5437    6.0638    2.2803 C   0  0  0  0  0  0  0  0  0  0  0  0
    0.2315    2.0847    4.2616 O   0  0  0  0  0  0  0  0  0  0  0  0
   -1.8034    1.3454    3.5930 C   0  0  0  0  0  0  0  0  0  0  0  0
    4.0597    3.4008    6.7710 O   0  0  0  0  0  0  0  0  0  0  0  0
    6.3557    3.9490    6.1621 C   0  0  2  0  0  0  0  0  0  0  0  0
    5.3814   -0.8633    6.7992 C   0  0  0  0  0  0  0  0  0  0  0  0
    6.2663   -2.3643    2.6220 C   0  0  0  0  0  0  0  0  0  0  0  0
   -1.6962    4.1741    4.8966 O   0  0  0  0  0  0  0  0  0  0  0  0
    1.2279    3.0110    4.6090 C   0  0  0  0  0  0  0  0  0  0  0  0
    3.7925    4.7867    6.9367 C   0  0  1  0  0  0  0  0  0  0  0  0
    6.7126    3.8887    7.5801 O   0  0  0  0  0  0  0  0  0  0  0  0
    6.0953    5.4493    5.8217 C   0  0  2  0  0  0  0  0  0  0  0  0
    4.8702    5.8506    6.6457 C   0  0  0  0  0  0  0  0  0  0  0  0
    2.5417    5.1579    6.2015 C   0  0  0  0  0  0  0  0  0  0  0  0
    6.2832    5.8340    4.3840 N   0  0  0  0  0  0  0  0  0  0  0  0
    5.8558    7.1303    3.8179 C   0  0  0  0  0  0  0  0  0  0  0  0
    5.8454    4.8141    3.4419 C   0  0  0  0  0  0  0  0  0  0  0  0
    6.2914    8.4036    4.4918 C   0  0  0  0  0  0  0  0  0  0  0  0
    7.4817    9.0762    4.1727 C   0  0  0  0  0  0  0  0  0  0  0  0
    5.4358    8.9932    5.4257 C   0  0  0  0  0  0  0  0  0  0  0  0
    7.8561   10.2184    4.8900 C   0  0  0  0  0  0  0  0  0  0  0  0
    5.8025   10.0888    6.1558 C   0  0  0  0  0  0  0  0  0  0  0  0
    7.0500   10.6702    5.9419 C   0  0  0  0  0  0  0  0  0  0  0  0
    7.5322   11.5793    6.9459 C   0  0  0  0  0  0  0  0  0  0  0  0
    6.7559   12.4656    7.6497 N   0  0  0  0  0  0  0  0  0  0  0  0
    8.7460   11.4327    7.5725 C   0  0  0  0  0  0  0  0  0  0  0  0
    7.4427   12.8551    8.7126 N   0  0  0  0  0  0  0  0  0  0  0  0
    8.6161   12.1959    8.6855 N   0  0  0  0  0  0  0  0  0  0  0  0
    9.5544   12.2998    9.7752 C   0  0  0  0  0  0  0  0  0  0  0  0
   10.5179   13.4647    9.5796 C   0  0  0  0  0  0  0  0  0  0  0  0
    9.8510   14.8428    9.6103 C   0  0  0  0  0  0  0  0  0  0  0  0
    9.1754   15.1419   10.9460 C   0  0  0  0  0  0  0  0  0  0  0  0
    8.5100   16.4962   10.9465 C   0  0  0  0  0  0  0  0  0  0  0  0
    8.8432   17.4013   11.7135 O   0  0  0  0  0  0  0  0  0  0  0  0
    7.4936   16.6321   10.0407 N   0  0  0  0  0  0  0  0  0  0  0  0
    6.7703   17.8448   10.1320 O   0  0  0  0  0  0  0  0  0  0  0  0
    3.4785    1.2255   -0.3673 H   0  0  0  0  0  0  0  0  0  0  0  0
    0.9638   -2.3964   -0.5564 H   0  0  0  0  0  0  0  0  0  0  0  0
    1.8668    1.1024    2.1686 H   0  0  0  0  0  0  0  0  0  0  0  0
    0.6959    2.1080   -0.9932 H   0  0  0  0  0  0  0  0  0  0  0  0
    2.0395    1.7801   -2.0434 H   0  0  0  0  0  0  0  0  0  0  0  0
    2.1391    3.1878   -1.0093 H   0  0  0  0  0  0  0  0  0  0  0  0
    1.4144   -3.3189   -2.8060 H   0  0  0  0  0  0  0  0  0  0  0  0
    2.8394   -2.2790   -2.9591 H   0  0  0  0  0  0  0  0  0  0  0  0
    4.6156    2.3724    2.0135 H   0  0  0  0  0  0  0  0  0  0  0  0
    1.2517   -4.8281   -0.5375 H   0  0  0  0  0  0  0  0  0  0  0  0
    1.9641   -4.4101    1.5135 H   0  0  0  0  0  0  0  0  0  0  0  0
    4.1773   -3.6545   -2.0524 H   0  0  0  0  0  0  0  0  0  0  0  0
    4.7653   -4.4669   -0.6609 H   0  0  0  0  0  0  0  0  0  0  0  0
    4.7638   -2.6826   -0.6870 H   0  0  0  0  0  0  0  0  0  0  0  0
    0.0286   -1.1838   -2.5586 H   0  0  0  0  0  0  0  0  0  0  0  0
    0.8447   -1.3773   -4.1221 H   0  0  0  0  0  0  0  0  0  0  0  0
    1.5077   -0.2700   -2.9256 H   0  0  0  0  0  0  0  0  0  0  0  0
    0.5894    3.5206    0.4157 H   0  0  0  0  0  0  0  0  0  0  0  0
    3.1409    1.3329    4.4295 H   0  0  0  0  0  0  0  0  0  0  0  0
    3.7869   -0.5075    1.5376 H   0  0  0  0  0  0  0  0  0  0  0  0
    5.4066   -0.1329    2.0582 H   0  0  0  0  0  0  0  0  0  0  0  0
    4.8877    0.4607    0.5734 H   0  0  0  0  0  0  0  0  0  0  0  0
    1.4930   -2.1572    1.4689 H   0  0  0  0  0  0  0  0  0  0  0  0
    4.8654   -3.6880    1.3444 H   0  0  0  0  0  0  0  0  0  0  0  0
   -0.0442    1.3548    1.6571 H   0  0  0  0  0  0  0  0  0  0  0  0
   -1.2497    2.5610    1.2713 H   0  0  0  0  0  0  0  0  0  0  0  0
    3.6756   -6.2034    2.5201 H   0  0  0  0  0  0  0  0  0  0  0  0
    5.3678   -5.8255    2.2052 H   0  0  0  0  0  0  0  0  0  0  0  0
    4.2550   -6.0475    0.8512 H   0  0  0  0  0  0  0  0  0  0  0  0
   -0.0542    5.5704    3.6837 H   0  0  0  0  0  0  0  0  0  0  0  0
    5.4894    2.0608    6.3634 H   0  0  0  0  0  0  0  0  0  0  0  0
    3.5439   -1.0610    3.3706 H   0  0  0  0  0  0  0  0  0  0  0  0
    3.6900   -1.5955    4.9334 H   0  0  0  0  0  0  0  0  0  0  0  0
    6.8497    1.2458    4.7508 H   0  0  0  0  0  0  0  0  0  0  0  0
    6.6983    0.5055    3.2011 H   0  0  0  0  0  0  0  0  0  0  0  0
    7.0972   -0.4680    4.6155 H   0  0  0  0  0  0  0  0  0  0  0  0
    5.7112   -2.8158    4.5970 H   0  0  0  0  0  0  0  0  0  0  0  0
   -2.3875    3.8419    3.0300 H   0  0  0  0  0  0  0  0  0  0  0  0
   -2.1130    5.6241    1.4527 H   0  0  0  0  0  0  0  0  0  0  0  0
   -0.9850    6.9067    1.8554 H   0  0  0  0  0  0  0  0  0  0  0  0
   -2.2481    6.4520    3.0223 H   0  0  0  0  0  0  0  0  0  0  0  0
   -1.2999    0.3723    3.5778 H   0  0  0  0  0  0  0  0  0  0  0  0
   -2.6004    1.3258    2.8420 H   0  0  0  0  0  0  0  0  0  0  0  0
   -2.2520    1.4356    4.5865 H   0  0  0  0  0  0  0  0  0  0  0  0
    7.2520    3.6004    5.6392 H   0  0  0  0  0  0  0  0  0  0  0  0
    5.3115   -0.5408    7.8420 H   0  0  0  0  0  0  0  0  0  0  0  0
    6.4350   -1.0177    6.5634 H   0  0  0  0  0  0  0  0  0  0  0  0
    4.8301   -1.8019    6.7133 H   0  0  0  0  0  0  0  0  0  0  0  0
    5.8819   -2.0385    1.6544 H   0  0  0  0  0  0  0  0  0  0  0  0
    6.7408   -3.3393    2.4524 H   0  0  0  0  0  0  0  0  0  0  0  0
    7.0788   -1.6923    2.8902 H   0  0  0  0  0  0  0  0  0  0  0  0
   -1.5562    3.3607    5.4212 H   0  0  0  0  0  0  0  0  0  0  0  0
    1.7054    2.6393    5.5195 H   0  0  0  0  0  0  0  0  0  0  0  0
    0.8039    3.9883    4.7954 H   0  0  0  0  0  0  0  0  0  0  0  0
    2.0100    3.1081    3.8724 H   0  0  0  0  0  0  0  0  0  0  0  0
    3.5431    4.8958    8.0072 H   0  0  0  0  0  0  0  0  0  0  0  0
    5.8825    3.7394    8.0795 H   0  0  0  0  0  0  0  0  0  0  0  0
    6.9093    6.0162    6.3026 H   0  0  0  0  0  0  0  0  0  0  0  0
    5.2436    6.1819    7.6265 H   0  0  0  0  0  0  0  0  0  0  0  0
    4.3865    6.7413    6.2591 H   0  0  0  0  0  0  0  0  0  0  0  0
    2.7140    5.0391    5.1283 H   0  0  0  0  0  0  0  0  0  0  0  0
    2.2162    6.1834    6.3896 H   0  0  0  0  0  0  0  0  0  0  0  0
    1.7399    4.5046    6.5478 H   0  0  0  0  0  0  0  0  0  0  0  0
    4.7775    7.1505    3.6634 H   0  0  0  0  0  0  0  0  0  0  0  0
    6.3010    7.1887    2.8092 H   0  0  0  0  0  0  0  0  0  0  0  0
    6.0727    5.0829    2.4009 H   0  0  0  0  0  0  0  0  0  0  0  0
    4.7624    4.6841    3.5064 H   0  0  0  0  0  0  0  0  0  0  0  0
    6.3995    3.8871    3.5944 H   0  0  0  0  0  0  0  0  0  0  0  0
    8.1256    8.7156    3.3682 H   0  0  0  0  0  0  0  0  0  0  0  0
    4.4397    8.5644    5.5866 H   0  0  0  0  0  0  0  0  0  0  0  0
    8.7883   10.7235    4.6475 H   0  0  0  0  0  0  0  0  0  0  0  0
    5.1509   10.4435    6.9503 H   0  0  0  0  0  0  0  0  0  0  0  0
    9.5892   10.7820    7.3955 H   0  0  0  0  0  0  0  0  0  0  0  0
   10.1113   11.3560    9.8137 H   0  0  0  0  0  0  0  0  0  0  0  0
    8.9868   12.3653   10.7101 H   0  0  0  0  0  0  0  0  0  0  0  0
   11.0279   13.3504    8.6147 H   0  0  0  0  0  0  0  0  0  0  0  0
   11.2903   13.4231   10.3547 H   0  0  0  0  0  0  0  0  0  0  0  0
    9.1344   14.9292    8.7850 H   0  0  0  0  0  0  0  0  0  0  0  0
   10.6134   15.6062    9.4125 H   0  0  0  0  0  0  0  0  0  0  0  0
    9.9154   15.1134   11.7541 H   0  0  0  0  0  0  0  0  0  0  0  0
    8.4007   14.4078   11.1887 H   0  0  0  0  0  0  0  0  0  0  0  0
    7.0025   15.8327    9.6470 H   0  0  0  0  0  0  0  0  0  0  0  0
    7.2365   18.3142   10.8549 H   0  0  0  0  0  0  0  0  0  0  0  0
  1  2  2  0  0  0  0
  2  3  1  0  0  0  0
  2  4  1  0  0  0  0
  3  5  1  0  0  0  0
  4  6  1  1  0  0  0
  4  7  1  0  0  0  0
  4 72  1  0  0  0  0
  5  8  1  1  0  0  0
  5  9  1  0  0  0  0
  5 73  1  0  0  0  0
  6 10  1  0  0  0  0
  6 11  1  1  0  0  0
  6 74  1  0  0  0  0
  7 75  1  0  0  0  0
  7 76  1  0  0  0  0
  7 77  1  0  0  0  0
  8 12  1  0  0  0  0
  8 13  1  1  0  0  0
  8 14  1  0  0  0  0
  9 15  1  0  0  0  0
  9 78  1  0  0  0  0
  9 79  1  0  0  0  0
 11 17  1  1  0  0  0
 11 18  1  0  0  0  0
 11 80  1  0  0  0  0
 12 81  1  0  0  0  0
 13 20  1  1  0  0  0
 13 19  1  0  0  0  0
 13 82  1  0  0  0  0
 14 83  1  0  0  0  0
 14 84  1  0  0  0  0
 14 85  1  0  0  0  0
 15 86  1  0  0  0  0
 15 87  1  0  0  0  0
 15 88  1  0  0  0  0
 16 10  1  0  0  0  0
 16 21  1  0  0  0  0
 16 22  1  0  0  0  0
 16 89  1  6  0  0  0
 17 23  1  0  0  0  0
 17 24  1  1  0  0  0
 17 90  1  0  0  0  0
 18 91  1  0  0  0  0
 18 92  1  0  0  0  0
 18 93  1  0  0  0  0
 19 94  1  0  0  0  0
 20 25  1  0  0  0  0
 20 26  1  0  0  0  0
 20 95  1  6  0  0  0
 21 27  1  0  0  0  0
 22 28  1  0  0  0  0
 22 96  1  0  0  0  0
 22 97  1  0  0  0  0
 24 30  1  1  0  0  0
 24 31  1  0  0  0  0
 24 32  1  0  0  0  0
 25 33  2  0  0  0  0
 25 34  1  0  0  0  0
 26 98  1  0  0  0  0
 26 99  1  0  0  0  0
 26100  1  0  0  0  0
 27 35  1  1  0  0  0
 27 36  1  0  0  0  0
 27101  1  0  0  0  0
 28 37  1  0  0  0  0
 28 38  1  0  0  0  0
 28 35  1  1  0  0  0
 29 23  1  0  0  0  0
 29 39  1  0  0  0  0
 29 40  1  1  0  0  0
 29102  1  0  0  0  0
 30 41  1  0  0  0  0
 31 34  1  0  0  0  0
 31103  1  0  0  0  0
 31104  1  0  0  0  0
 32105  1  0  0  0  0
 32106  1  0  0  0  0
 32107  1  0  0  0  0
 34 42  1  0  0  0  0
 34108  1  1  0  0  0
 35 43  1  0  0  0  0
 35109  1  6  0  0  0
 36110  1  0  0  0  0
 36111  1  0  0  0  0
 36112  1  0  0  0  0
 37 44  1  0  0  0  0
 38113  1  0  0  0  0
 38114  1  0  0  0  0
 38115  1  0  0  0  0
 39 45  1  0  0  0  0
 40 47  1  6  0  0  0
 40 46  1  0  0  0  0
 40116  1  0  0  0  0
 41117  1  0  0  0  0
 41118  1  0  0  0  0
 41119  1  0  0  0  0
 42120  1  0  0  0  0
 42121  1  0  0  0  0
 42122  1  0  0  0  0
 43123  1  0  0  0  0
 44124  1  0  0  0  0
 44125  1  0  0  0  0
 44126  1  0  0  0  0
 45 48  1  0  0  0  0
 45 49  1  0  0  0  0
 45127  1  1  0  0  0
 46128  1  0  0  0  0
 47 48  1  0  0  0  0
 47 50  1  0  0  0  0
 47129  1  1  0  0  0
 48130  1  0  0  0  0
 48131  1  0  0  0  0
 49132  1  0  0  0  0
 49133  1  0  0  0  0
 49134  1  0  0  0  0
 50 51  1  0  0  0  0
 50 52  1  0  0  0  0
 51 53  1  0  0  0  0
 51135  1  0  0  0  0
 51136  1  0  0  0  0
 52137  1  0  0  0  0
 52138  1  0  0  0  0
 52139  1  0  0  0  0
 53 54  2  0  0  0  0
 53 55  1  0  0  0  0
 54 56  1  0  0  0  0
 54140  1  0  0  0  0
 55 57  2  0  0  0  0
 55141  1  0  0  0  0
 56 58  2  0  0  0  0
 56142  1  0  0  0  0
 57 58  1  0  0  0  0
 57143  1  0  0  0  0
 58 59  1  0  0  0  0
 59 60  1  0  0  0  0
 59 61  2  0  0  0  0
 60 62  2  0  0  0  0
 61 63  1  0  0  0  0
 61144  1  0  0  0  0
 62 63  1  0  0  0  0
 63 64  1  0  0  0  0
 64 65  1  0  0  0  0
 64145  1  0  0  0  0
 64146  1  0  0  0  0
 65 66  1  0  0  0  0
 65147  1  0  0  0  0
 65148  1  0  0  0  0
 66 67  1  0  0  0  0
 66149  1  0  0  0  0
 66150  1  0  0  0  0
 67 68  1  0  0  0  0
 67151  1  0  0  0  0
 67152  1  0  0  0  0
 68 69  2  0  0  0  0
 68 70  1  0  0  0  0
 70 71  1  0  0  0  0
 70153  1  0  0  0  0
 71154  1  0  0  0  0
M  END
>  <Molecule Name>
2337331

>  <MolRegNo>
2337331

>  <m>
=

>  <Value>
120

>  <Unit>
nM

>  <Type>
IC50

>  <pValue>
6.92

>  <Ligand Efficiency>
0

>  <Binding Efficiency>
6.88

>  <Surface Efficiency>
0

>  <Assay Index>
977531

>  <Assay Category>


>  <Assay Organism>
Homo sapiens

>  <Target ID>
11307

>  <Target Name>
Histone deacetylase 6

>  <Target Organism>
Homo sapiens

>  <Target Description>
Target is a single protein chain

>  <Sequence Accession>
Q9UBN7

>  <Reference>
Bioorg. Med. Chem. 23 (24), 7543-7564 (2015)

>  <Pubmed ID>
26585275

>  <DOI>
10.1016/j.bmc.2015.10.045

$$$$
2337386
 OpenBabel03252423443D

157161  0  0  0  0  0  0  0  0999 V2000
    0.5771   -0.5967    0.3506 O   0  0  0  0  0  0  0  0  0  0  0  0
    1.6844   -0.3268   -0.0968 C   0  0  0  0  0  0  0  0  0  0  0  0
    2.5005   -1.2213   -0.7043 O   0  0  0  0  0  0  0  0  0  0  0  0
    2.2887    1.0444   -0.0789 C   0  0  2  0  0  0  0  0  0  0  0  0
    1.8908   -2.4838   -1.0376 C   0  0  2  0  0  0  0  0  0  0  0  0
    2.4214    1.5115    1.4146 C   0  0  2  0  0  0  0  0  0  0  0  0
    1.4147    1.8454   -1.0294 C   0  0  0  0  0  0  0  0  0  0  0  0
    2.7045   -3.6833   -0.4248 C   0  0  2  0  0  0  0  0  0  0  0  0
    1.7902   -2.4866   -2.5782 C   0  0  0  0  0  0  0  0  0  0  0  0
    1.8943    2.8549    1.4680 O   0  0  0  0  0  0  0  0  0  0  0  0
    4.0710    1.2913    1.9963 C   0  0  1  0  0  0  0  0  0  0  0  0
    2.1331   -4.9076   -0.9274 O   0  0  0  0  0  0  0  0  0  0  0  0
    2.6286   -3.7870    1.1761 C   0  0  2  0  0  0  0  0  0  0  0  0
    4.1407   -3.6326   -0.9841 C   0  0  0  0  0  0  0  0  0  0  0  0
    0.9778   -1.3166   -3.1295 C   0  0  0  0  0  0  0  0  0  0  0  0
    0.4926    3.2141    1.3936 C   0  0  2  0  0  0  0  0  0  0  0  0
    4.4761    1.2103    3.6674 C   0  0  2  0  0  0  0  0  0  0  0  0
    4.5046    0.0040    1.2980 C   0  0  0  0  0  0  0  0  0  0  0  0
    2.2613   -2.5391    1.7616 O   0  0  0  0  0  0  0  0  0  0  0  0
    3.9369   -4.2511    1.8517 C   0  0  1  0  0  0  0  0  0  0  0  0
    0.2286    4.5917    1.6232 O   0  0  0  0  0  0  0  0  0  0  0  0
   -0.5126    2.2858    2.0142 C   0  0  0  0  0  0  0  0  0  0  0  0
    5.1622    2.3857    4.3594 O   0  0  0  0  0  0  0  0  0  0  0  0
    4.9963   -0.1295    4.3276 C   0  0  1  0  0  0  0  0  0  0  0  0
    4.1085   -3.8023    3.2985 C   0  0  0  0  0  0  0  0  0  0  0  0
    4.2589   -5.7375    1.8199 C   0  0  0  0  0  0  0  0  0  0  0  0
   -0.4856    5.0514    2.7604 C   0  0  2  0  0  0  0  0  0  0  0  0
   -0.8421    2.5880    3.4785 C   0  0  2  0  0  0  0  0  0  0  0  0
    6.5531    2.8089    4.5130 C   0  0  2  0  0  0  0  0  0  0  0  0
    4.8961   -0.0162    5.7775 O   0  0  0  0  0  0  0  0  0  0  0  0
    4.2994   -1.4532    3.9601 C   0  0  0  0  0  0  0  0  0  0  0  0
    6.4713   -0.2410    3.9718 C   0  0  0  0  0  0  0  0  0  0  0  0
    3.4279   -4.2872    4.2066 O   0  0  0  0  0  0  0  0  0  0  0  0
    5.1399   -2.7107    3.5997 C   0  0  2  0  0  0  0  0  0  0  0  0
   -1.4024    4.0385    3.4902 C   0  0  1  0  0  0  0  0  0  0  0  0
   -1.3415    6.2210    2.2278 C   0  0  0  0  0  0  0  0  0  0  0  0
    0.3160    2.3780    4.2951 O   0  0  0  0  0  0  0  0  0  0  0  0
   -1.8487    1.4890    3.8541 C   0  0  0  0  0  0  0  0  0  0  0  0
    7.5409    1.9796    5.1760 O   0  0  0  0  0  0  0  0  0  0  0  0
    6.8551    4.2280    5.1180 C   0  0  2  0  0  0  0  0  0  0  0  0
    3.6408   -0.0120    6.4620 C   0  0  0  0  0  0  0  0  0  0  0  0
    6.2559   -2.7049    2.5342 C   0  0  0  0  0  0  0  0  0  0  0  0
   -1.6969    4.5591    4.7920 O   0  0  0  0  0  0  0  0  0  0  0  0
    0.1399    2.5194    5.7042 C   0  0  0  0  0  0  0  0  0  0  0  0
    7.7696    1.9282    6.5731 C   0  0  1  0  0  0  0  0  0  0  0  0
    8.2482    4.5369    4.7328 O   0  0  0  0  0  0  0  0  0  0  0  0
    6.8558    4.3434    6.6780 C   0  0  2  0  0  0  0  0  0  0  0  0
    7.7233    3.2463    7.3204 C   0  0  0  0  0  0  0  0  0  0  0  0
    7.0113    0.8360    7.2957 C   0  0  0  0  0  0  0  0  0  0  0  0
    5.6226    4.6090    7.4619 N   0  0  0  0  0  0  0  0  0  0  0  0
    4.3763    3.9604    7.0589 C   0  0  0  0  0  0  0  0  0  0  0  0
    5.4232    6.0377    7.6663 C   0  0  0  0  0  0  0  0  0  0  0  0
    3.6415    4.5195    5.8609 C   0  0  0  0  0  0  0  0  0  0  0  0
    2.9954    3.6039    5.1038 C   0  0  0  0  0  0  0  0  0  0  0  0
    3.5369    5.8168    5.3576 C   0  0  0  0  0  0  0  0  0  0  0  0
    2.8462    3.8297    3.7442 C   0  0  0  0  0  0  0  0  0  0  0  0
    3.3075    6.0587    3.9911 C   0  0  0  0  0  0  0  0  0  0  0  0
    3.1687    5.0122    3.1075 C   0  0  0  0  0  0  0  0  0  0  0  0
    3.2579    5.2149    1.6558 C   0  0  0  0  0  0  0  0  0  0  0  0
    2.5103    6.1356    0.9610 N   0  0  0  0  0  0  0  0  0  0  0  0
    4.1403    4.6276    0.7609 C   0  0  0  0  0  0  0  0  0  0  0  0
    2.8425    6.0791   -0.3274 N   0  0  0  0  0  0  0  0  0  0  0  0
    3.8293    5.1758   -0.4573 N   0  0  0  0  0  0  0  0  0  0  0  0
    4.5836    5.1071   -1.6983 C   0  0  0  0  0  0  0  0  0  0  0  0
    4.4872    3.8142   -2.5160 C   0  0  0  0  0  0  0  0  0  0  0  0
    3.1315    3.5502   -3.1539 C   0  0  0  0  0  0  0  0  0  0  0  0
    2.5545    4.5393   -4.1431 C   0  0  0  0  0  0  0  0  0  0  0  0
    1.1234    4.0975   -4.5051 C   0  0  0  0  0  0  0  0  0  0  0  0
    0.4938    5.1507   -5.3964 C   0  0  0  0  0  0  0  0  0  0  0  0
    0.6445    5.1347   -6.6541 O   0  0  0  0  0  0  0  0  0  0  0  0
   -0.1953    6.1124   -4.7503 N   0  0  0  0  0  0  0  0  0  0  0  0
   -0.6430    7.2166   -5.5644 O   0  0  0  0  0  0  0  0  0  0  0  0
    3.2651    1.0721   -0.5671 H   0  0  0  0  0  0  0  0  0  0  0  0
    0.8627   -2.5650   -0.6628 H   0  0  0  0  0  0  0  0  0  0  0  0
    1.8398    0.8804    2.0944 H   0  0  0  0  0  0  0  0  0  0  0  0
    0.3432    1.6783   -0.8934 H   0  0  0  0  0  0  0  0  0  0  0  0
    1.6168    1.5793   -2.0690 H   0  0  0  0  0  0  0  0  0  0  0  0
    1.6342    2.9038   -0.9084 H   0  0  0  0  0  0  0  0  0  0  0  0
    1.3480   -3.4239   -2.9240 H   0  0  0  0  0  0  0  0  0  0  0  0
    2.7872   -2.3943   -3.0208 H   0  0  0  0  0  0  0  0  0  0  0  0
    4.6687    2.1047    1.5976 H   0  0  0  0  0  0  0  0  0  0  0  0
    1.2141   -4.9648   -0.6073 H   0  0  0  0  0  0  0  0  0  0  0  0
    1.8427   -4.4998    1.4560 H   0  0  0  0  0  0  0  0  0  0  0  0
    4.1488   -3.6902   -2.0760 H   0  0  0  0  0  0  0  0  0  0  0  0
    4.7305   -4.5024   -0.6818 H   0  0  0  0  0  0  0  0  0  0  0  0
    4.6666   -2.7195   -0.6854 H   0  0  0  0  0  0  0  0  0  0  0  0
   -0.0105   -1.2534   -2.6667 H   0  0  0  0  0  0  0  0  0  0  0  0
    0.8524   -1.4214   -4.2109 H   0  0  0  0  0  0  0  0  0  0  0  0
    1.4992   -0.3691   -2.9685 H   0  0  0  0  0  0  0  0  0  0  0  0
    0.2333    3.2090    0.3439 H   0  0  0  0  0  0  0  0  0  0  0  0
    3.4656    1.2582    4.0729 H   0  0  0  0  0  0  0  0  0  0  0  0
    3.7467   -0.7652    1.4101 H   0  0  0  0  0  0  0  0  0  0  0  0
    5.4234   -0.3807    1.6698 H   0  0  0  0  0  0  0  0  0  0  0  0
    4.7092    0.1197    0.2349 H   0  0  0  0  0  0  0  0  0  0  0  0
    1.4138   -2.2246    1.3949 H   0  0  0  0  0  0  0  0  0  0  0  0
    4.7254   -3.7802    1.2887 H   0  0  0  0  0  0  0  0  0  0  0  0
   -0.2178    1.2472    1.8766 H   0  0  0  0  0  0  0  0  0  0  0  0
   -1.4452    2.4207    1.4416 H   0  0  0  0  0  0  0  0  0  0  0  0
    3.6073   -6.3064    2.4888 H   0  0  0  0  0  0  0  0  0  0  0  0
    5.2885   -5.8882    2.1758 H   0  0  0  0  0  0  0  0  0  0  0  0
    4.1927   -6.1514    0.8138 H   0  0  0  0  0  0  0  0  0  0  0  0
    0.2329    5.4863    3.4637 H   0  0  0  0  0  0  0  0  0  0  0  0
    6.9131    2.8692    3.4769 H   0  0  0  0  0  0  0  0  0  0  0  0
    3.4626   -1.2637    3.2942 H   0  0  0  0  0  0  0  0  0  0  0  0
    3.7655   -1.8170    4.8420 H   0  0  0  0  0  0  0  0  0  0  0  0
    6.9983    0.6724    3.9608 H   0  0  0  0  0  0  0  0  0  0  0  0
    6.6539   -0.4243    2.9269 H   0  0  0  0  0  0  0  0  0  0  0  0
    7.0259   -0.9249    4.6136 H   0  0  0  0  0  0  0  0  0  0  0  0
    5.6475   -3.0233    4.5228 H   0  0  0  0  0  0  0  0  0  0  0  0
   -2.3668    4.0156    2.9677 H   0  0  0  0  0  0  0  0  0  0  0  0
   -2.0271    5.8667    1.4458 H   0  0  0  0  0  0  0  0  0  0  0  0
   -0.7165    6.9854    1.7503 H   0  0  0  0  0  0  0  0  0  0  0  0
   -1.9349    6.6980    3.0132 H   0  0  0  0  0  0  0  0  0  0  0  0
   -1.3052    0.5369    3.9518 H   0  0  0  0  0  0  0  0  0  0  0  0
   -2.6168    1.3526    3.0880 H   0  0  0  0  0  0  0  0  0  0  0  0
   -2.3469    1.6734    4.8055 H   0  0  0  0  0  0  0  0  0  0  0  0
    6.2589    5.0221    4.6706 H   0  0  0  0  0  0  0  0  0  0  0  0
    3.8493   -0.0325    7.5382 H   0  0  0  0  0  0  0  0  0  0  0  0
    3.0048   -0.8759    6.2630 H   0  0  0  0  0  0  0  0  0  0  0  0
    3.0576    0.8835    6.2834 H   0  0  0  0  0  0  0  0  0  0  0  0
    5.9331   -2.2928    1.5742 H   0  0  0  0  0  0  0  0  0  0  0  0
    6.6111   -3.7217    2.3478 H   0  0  0  0  0  0  0  0  0  0  0  0
    7.1722   -2.1902    2.8190 H   0  0  0  0  0  0  0  0  0  0  0  0
   -2.0800    3.8537    5.3338 H   0  0  0  0  0  0  0  0  0  0  0  0
    0.9975    2.0770    6.2126 H   0  0  0  0  0  0  0  0  0  0  0  0
   -0.7256    1.9733    6.0781 H   0  0  0  0  0  0  0  0  0  0  0  0
    0.0966    3.5712    5.9955 H   0  0  0  0  0  0  0  0  0  0  0  0
    8.8131    1.5824    6.6356 H   0  0  0  0  0  0  0  0  0  0  0  0
    8.7412    3.6943    4.8325 H   0  0  0  0  0  0  0  0  0  0  0  0
    7.4819    5.2266    6.8904 H   0  0  0  0  0  0  0  0  0  0  0  0
    8.7602    3.6209    7.3440 H   0  0  0  0  0  0  0  0  0  0  0  0
    7.4895    3.0915    8.3831 H   0  0  0  0  0  0  0  0  0  0  0  0
    5.9908    1.1540    7.5065 H   0  0  0  0  0  0  0  0  0  0  0  0
    7.4796    0.5965    8.2554 H   0  0  0  0  0  0  0  0  0  0  0  0
    7.0086   -0.0873    6.7136 H   0  0  0  0  0  0  0  0  0  0  0  0
    3.6823    3.9132    7.9068 H   0  0  0  0  0  0  0  0  0  0  0  0
    4.6302    2.9047    6.8726 H   0  0  0  0  0  0  0  0  0  0  0  0
    4.4206    6.2440    8.0614 H   0  0  0  0  0  0  0  0  0  0  0  0
    5.5680    6.5889    6.7310 H   0  0  0  0  0  0  0  0  0  0  0  0
    6.1352    6.4380    8.3875 H   0  0  0  0  0  0  0  0  0  0  0  0
    2.8257    2.6035    5.4755 H   0  0  0  0  0  0  0  0  0  0  0  0
    3.6845    6.6804    5.9714 H   0  0  0  0  0  0  0  0  0  0  0  0
    2.5065    2.9509    3.2665 H   0  0  0  0  0  0  0  0  0  0  0  0
    3.2600    7.0652    3.6119 H   0  0  0  0  0  0  0  0  0  0  0  0
    4.9443    3.9223    0.8676 H   0  0  0  0  0  0  0  0  0  0  0  0
    5.6314    5.2647   -1.4212 H   0  0  0  0  0  0  0  0  0  0  0  0
    4.2851    5.9571   -2.3176 H   0  0  0  0  0  0  0  0  0  0  0  0
    4.7256    2.9640   -1.8601 H   0  0  0  0  0  0  0  0  0  0  0  0
    5.2458    3.8177   -3.3059 H   0  0  0  0  0  0  0  0  0  0  0  0
    2.4280    3.5874   -2.3462 H   0  0  0  0  0  0  0  0  0  0  0  0
    3.1189    2.5367   -3.5808 H   0  0  0  0  0  0  0  0  0  0  0  0
    3.1693    4.6025   -5.0391 H   0  0  0  0  0  0  0  0  0  0  0  0
    2.5104    5.5350   -3.6910 H   0  0  0  0  0  0  0  0  0  0  0  0
    0.4992    3.9957   -3.6019 H   0  0  0  0  0  0  0  0  0  0  0  0
    1.1077    3.1370   -5.0142 H   0  0  0  0  0  0  0  0  0  0  0  0
   -0.1462    6.3041   -3.7445 H   0  0  0  0  0  0  0  0  0  0  0  0
   -0.2756    6.9591   -6.4399 H   0  0  0  0  0  0  0  0  0  0  0  0
  1  2  2  0  0  0  0
  2  3  1  0  0  0  0
  2  4  1  0  0  0  0
  3  5  1  0  0  0  0
  4  6  1  1  0  0  0
  4  7  1  0  0  0  0
  4 73  1  0  0  0  0
  5  8  1  1  0  0  0
  5  9  1  0  0  0  0
  5 74  1  0  0  0  0
  6 10  1  0  0  0  0
  6 11  1  1  0  0  0
  6 75  1  0  0  0  0
  7 76  1  0  0  0  0
  7 77  1  0  0  0  0
  7 78  1  0  0  0  0
  8 12  1  0  0  0  0
  8 13  1  1  0  0  0
  8 14  1  0  0  0  0
  9 15  1  0  0  0  0
  9 79  1  0  0  0  0
  9 80  1  0  0  0  0
 11 17  1  1  0  0  0
 11 18  1  0  0  0  0
 11 81  1  0  0  0  0
 12 82  1  0  0  0  0
 13 20  1  1  0  0  0
 13 19  1  0  0  0  0
 13 83  1  0  0  0  0
 14 84  1  0  0  0  0
 14 85  1  0  0  0  0
 14 86  1  0  0  0  0
 15 87  1  0  0  0  0
 15 88  1  0  0  0  0
 15 89  1  0  0  0  0
 16 10  1  0  0  0  0
 16 21  1  0  0  0  0
 16 22  1  0  0  0  0
 16 90  1  6  0  0  0
 17 23  1  0  0  0  0
 17 24  1  1  0  0  0
 17 91  1  0  0  0  0
 18 92  1  0  0  0  0
 18 93  1  0  0  0  0
 18 94  1  0  0  0  0
 19 95  1  0  0  0  0
 20 25  1  0  0  0  0
 20 26  1  0  0  0  0
 20 96  1  6  0  0  0
 21 27  1  0  0  0  0
 22 28  1  0  0  0  0
 22 97  1  0  0  0  0
 22 98  1  0  0  0  0
 24 30  1  1  0  0  0
 24 31  1  0  0  0  0
 24 32  1  0  0  0  0
 25 33  2  0  0  0  0
 25 34  1  0  0  0  0
 26 99  1  0  0  0  0
 26100  1  0  0  0  0
 26101  1  0  0  0  0
 27 35  1  1  0  0  0
 27 36  1  0  0  0  0
 27102  1  0  0  0  0
 28 37  1  0  0  0  0
 28 38  1  0  0  0  0
 28 35  1  1  0  0  0
 29 23  1  0  0  0  0
 29 39  1  0  0  0  0
 29 40  1  1  0  0  0
 29103  1  0  0  0  0
 30 41  1  0  0  0  0
 31 34  1  0  0  0  0
 31104  1  0  0  0  0
 31105  1  0  0  0  0
 32106  1  0  0  0  0
 32107  1  0  0  0  0
 32108  1  0  0  0  0
 34 42  1  0  0  0  0
 34109  1  1  0  0  0
 35 43  1  0  0  0  0
 35110  1  6  0  0  0
 36111  1  0  0  0  0
 36112  1  0  0  0  0
 36113  1  0  0  0  0
 37 44  1  0  0  0  0
 38114  1  0  0  0  0
 38115  1  0  0  0  0
 38116  1  0  0  0  0
 39 45  1  0  0  0  0
 40 47  1  1  0  0  0
 40 46  1  0  0  0  0
 40117  1  0  0  0  0
 41118  1  0  0  0  0
 41119  1  0  0  0  0
 41120  1  0  0  0  0
 42121  1  0  0  0  0
 42122  1  0  0  0  0
 42123  1  0  0  0  0
 43124  1  0  0  0  0
 44125  1  0  0  0  0
 44126  1  0  0  0  0
 44127  1  0  0  0  0
 45 48  1  0  0  0  0
 45 49  1  0  0  0  0
 45128  1  1  0  0  0
 46129  1  0  0  0  0
 47 48  1  0  0  0  0
 47 50  1  0  0  0  0
 47130  1  1  0  0  0
 48131  1  0  0  0  0
 48132  1  0  0  0  0
 49133  1  0  0  0  0
 49134  1  0  0  0  0
 49135  1  0  0  0  0
 50 51  1  0  0  0  0
 50 52  1  0  0  0  0
 51 53  1  0  0  0  0
 51136  1  0  0  0  0
 51137  1  0  0  0  0
 52138  1  0  0  0  0
 52139  1  0  0  0  0
 52140  1  0  0  0  0
 53 54  2  0  0  0  0
 53 55  1  0  0  0  0
 54 56  1  0  0  0  0
 54141  1  0  0  0  0
 55 57  2  0  0  0  0
 55142  1  0  0  0  0
 56 58  2  0  0  0  0
 56143  1  0  0  0  0
 57 58  1  0  0  0  0
 57144  1  0  0  0  0
 58 59  1  0  0  0  0
 59 60  1  0  0  0  0
 59 61  2  0  0  0  0
 60 62  2  0  0  0  0
 61 63  1  0  0  0  0
 61145  1  0  0  0  0
 62 63  1  0  0  0  0
 63 64  1  0  0  0  0
 64 65  1  0  0  0  0
 64146  1  0  0  0  0
 64147  1  0  0  0  0
 65 66  1  0  0  0  0
 65148  1  0  0  0  0
 65149  1  0  0  0  0
 66 67  1  0  0  0  0
 66150  1  0  0  0  0
 66151  1  0  0  0  0
 67 68  1  0  0  0  0
 67152  1  0  0  0  0
 67153  1  0  0  0  0
 68 69  1  0  0  0  0
 68154  1  0  0  0  0
 68155  1  0  0  0  0
 69 70  2  0  0  0  0
 69 71  1  0  0  0  0
 71 72  1  0  0  0  0
 71156  1  0  0  0  0
 72157  1  0  0  0  0
M  END
>  <Molecule Name>
2337386

>  <MolRegNo>
2337386

>  <m>
=

>  <Value>
3.61

>  <Unit>
nM

>  <Type>
IC50

>  <pValue>
8.44

>  <Ligand Efficiency>
0

>  <Binding Efficiency>
8.27

>  <Surface Efficiency>
0

>  <Assay Index>
977531

>  <Assay Category>


>  <Assay Organism>
Homo sapiens

>  <Target ID>
11307

>  <Target Name>
Histone deacetylase 6

>  <Target Organism>
Homo sapiens

>  <Target Description>
Target is a single protein chain

>  <Sequence Accession>
Q9UBN7

>  <Reference>
Bioorg. Med. Chem. 23 (24), 7543-7564 (2015)

>  <Pubmed ID>
26585275

>  <DOI>
10.1016/j.bmc.2015.10.045

$$$$
2337442
 OpenBabel03252423443D

160164  0  0  0  0  0  0  0  0999 V2000
    0.3887   -0.3938    0.0641 O   0  0  0  0  0  0  0  0  0  0  0  0
    1.5643   -0.2009   -0.2255 C   0  0  0  0  0  0  0  0  0  0  0  0
    2.4034   -1.1683   -0.6746 O   0  0  0  0  0  0  0  0  0  0  0  0
    2.2366    1.1602   -0.1708 C   0  0  2  0  0  0  0  0  0  0  0  0
    1.7914   -2.4350   -1.0124 C   0  0  2  0  0  0  0  0  0  0  0  0
    2.3418    1.5349    1.3641 C   0  0  2  0  0  0  0  0  0  0  0  0
    1.5206    2.0667   -1.1751 C   0  0  0  0  0  0  0  0  0  0  0  0
    2.6109   -3.6445   -0.4147 C   0  0  2  0  0  0  0  0  0  0  0  0
    1.6865   -2.4489   -2.5475 C   0  0  0  0  0  0  0  0  0  0  0  0
    1.7699    2.8385    1.5229 O   0  0  0  0  0  0  0  0  0  0  0  0
    3.9778    1.3096    1.9773 C   0  0  1  0  0  0  0  0  0  0  0  0
    2.0360   -4.8671   -0.9212 O   0  0  0  0  0  0  0  0  0  0  0  0
    2.5414   -3.7590    1.1830 C   0  0  2  0  0  0  0  0  0  0  0  0
    4.0447   -3.6035   -0.9816 C   0  0  0  0  0  0  0  0  0  0  0  0
    0.8666   -1.2969   -3.1169 C   0  0  0  0  0  0  0  0  0  0  0  0
    0.3614    3.1452    1.4351 C   0  0  2  0  0  0  0  0  0  0  0  0
    4.3828    1.2286    3.6523 C   0  0  2  0  0  0  0  0  0  0  0  0
    4.4057    0.0200    1.2782 C   0  0  0  0  0  0  0  0  0  0  0  0
    2.1713   -2.5159    1.7785 O   0  0  0  0  0  0  0  0  0  0  0  0
    3.8523   -4.2293    1.8486 C   0  0  1  0  0  0  0  0  0  0  0  0
    0.0496    4.5130    1.6788 O   0  0  0  0  0  0  0  0  0  0  0  0
   -0.6214    2.1932    2.0725 C   0  0  0  0  0  0  0  0  0  0  0  0
    5.0753    2.4111    4.3303 O   0  0  0  0  0  0  0  0  0  0  0  0
    4.9250   -0.1131    4.3060 C   0  0  1  0  0  0  0  0  0  0  0  0
    4.0289   -3.7918    3.2978 C   0  0  0  0  0  0  0  0  0  0  0  0
    4.1704   -5.7169    1.8061 C   0  0  0  0  0  0  0  0  0  0  0  0
   -0.6716    4.9574    2.8202 C   0  0  2  0  0  0  0  0  0  0  0  0
   -1.0013    2.4906    3.5314 C   0  0  2  0  0  0  0  0  0  0  0  0
    6.4781    2.8033    4.4782 C   0  0  2  0  0  0  0  0  0  0  0  0
    4.8556   -0.0024    5.7593 O   0  0  0  0  0  0  0  0  0  0  0  0
    4.2302   -1.4414    3.9467 C   0  0  0  0  0  0  0  0  0  0  0  0
    6.3944   -0.2173    3.9199 C   0  0  0  0  0  0  0  0  0  0  0  0
    3.3452   -4.2755    4.2037 O   0  0  0  0  0  0  0  0  0  0  0  0
    5.0672   -2.7066    3.6030 C   0  0  2  0  0  0  0  0  0  0  0  0
   -1.5803    3.9323    3.5414 C   0  0  1  0  0  0  0  0  0  0  0  0
   -1.5445    6.1109    2.2801 C   0  0  0  0  0  0  0  0  0  0  0  0
    0.1295    2.2809    4.3875 O   0  0  0  0  0  0  0  0  0  0  0  0
   -2.0171    1.3871    3.8713 C   0  0  0  0  0  0  0  0  0  0  0  0
    7.4568    1.9469    5.1213 O   0  0  0  0  0  0  0  0  0  0  0  0
    6.8145    4.2132    5.0739 C   0  0  2  0  0  0  0  0  0  0  0  0
    3.6206   -0.0456    6.4790 C   0  0  0  0  0  0  0  0  0  0  0  0
    6.1904   -2.7152    2.5450 C   0  0  0  0  0  0  0  0  0  0  0  0
   -1.8964    4.4451    4.8427 O   0  0  0  0  0  0  0  0  0  0  0  0
   -0.0782    2.4135    5.7932 C   0  0  0  0  0  0  0  0  0  0  0  0
    7.7449    1.9071    6.5075 C   0  0  1  0  0  0  0  0  0  0  0  0
    8.1895    4.5007    4.6404 O   0  0  0  0  0  0  0  0  0  0  0  0
    6.8506    4.3261    6.6322 C   0  0  2  0  0  0  0  0  0  0  0  0
    7.7232    3.2244    7.2568 C   0  0  0  0  0  0  0  0  0  0  0  0
    7.0219    0.8087    7.2579 C   0  0  0  0  0  0  0  0  0  0  0  0
    5.6329    4.5889    7.4390 N   0  0  0  0  0  0  0  0  0  0  0  0
    4.3803    3.9096    7.0978 C   0  0  0  0  0  0  0  0  0  0  0  0
    5.4457    6.0191    7.6589 C   0  0  0  0  0  0  0  0  0  0  0  0
    3.5660    4.4370    5.9404 C   0  0  0  0  0  0  0  0  0  0  0  0
    2.8405    3.5319    5.2285 C   0  0  0  0  0  0  0  0  0  0  0  0
    3.5055    5.7280    5.4251 C   0  0  0  0  0  0  0  0  0  0  0  0
    2.5999    3.7422    3.8804 C   0  0  0  0  0  0  0  0  0  0  0  0
    3.2478    5.9640    4.0943 C   0  0  0  0  0  0  0  0  0  0  0  0
    2.9844    4.9309    3.2315 C   0  0  0  0  0  0  0  0  0  0  0  0
    3.0545    5.1669    1.7961 C   0  0  0  0  0  0  0  0  0  0  0  0
    2.2829    6.1118    1.1735 N   0  0  0  0  0  0  0  0  0  0  0  0
    3.9555    4.6582    0.8798 C   0  0  0  0  0  0  0  0  0  0  0  0
    2.5779    6.1093   -0.1176 N   0  0  0  0  0  0  0  0  0  0  0  0
    3.5834    5.2413   -0.2954 N   0  0  0  0  0  0  0  0  0  0  0  0
    4.2450    5.1906   -1.5877 C   0  0  0  0  0  0  0  0  0  0  0  0
    4.9620    6.5178   -1.8202 C   0  0  0  0  0  0  0  0  0  0  0  0
    5.7405    6.6091   -3.1224 C   0  0  0  0  0  0  0  0  0  0  0  0
    4.8646    6.4767   -4.3689 C   0  0  0  0  0  0  0  0  0  0  0  0
    5.6476    6.7206   -5.6600 C   0  0  0  0  0  0  0  0  0  0  0  0
    6.7800    5.7168   -5.8649 C   0  0  0  0  0  0  0  0  0  0  0  0
    7.5290    5.9641   -7.1525 C   0  0  0  0  0  0  0  0  0  0  0  0
    7.2469    6.8340   -7.9714 O   0  0  0  0  0  0  0  0  0  0  0  0
    8.5947    5.1136   -7.3295 N   0  0  0  0  0  0  0  0  0  0  0  0
    9.2676    5.2367   -8.5666 O   0  0  0  0  0  0  0  0  0  0  0  0
    3.2421    1.1056   -0.6070 H   0  0  0  0  0  0  0  0  0  0  0  0
    0.7689   -2.5163   -0.6218 H   0  0  0  0  0  0  0  0  0  0  0  0
    1.7653    0.8348    1.9774 H   0  0  0  0  0  0  0  0  0  0  0  0
    0.4307    1.9895   -1.1101 H   0  0  0  0  0  0  0  0  0  0  0  0
    1.7488    1.7636   -2.2031 H   0  0  0  0  0  0  0  0  0  0  0  0
    1.8320    3.1119   -1.0873 H   0  0  0  0  0  0  0  0  0  0  0  0
    1.2507   -3.3969   -2.8853 H   0  0  0  0  0  0  0  0  0  0  0  0
    2.6839   -2.3605   -2.9964 H   0  0  0  0  0  0  0  0  0  0  0  0
    4.5851    2.1177    1.5825 H   0  0  0  0  0  0  0  0  0  0  0  0
    1.1209   -4.9317   -0.5920 H   0  0  0  0  0  0  0  0  0  0  0  0
    1.7580   -4.4763    1.4597 H   0  0  0  0  0  0  0  0  0  0  0  0
    4.0458   -3.6731   -2.0761 H   0  0  0  0  0  0  0  0  0  0  0  0
    4.6327   -4.4752   -0.6800 H   0  0  0  0  0  0  0  0  0  0  0  0
    4.5774   -2.6931   -0.6955 H   0  0  0  0  0  0  0  0  0  0  0  0
   -0.1084   -1.2197   -2.6250 H   0  0  0  0  0  0  0  0  0  0  0  0
    0.7017   -1.4449   -4.1846 H   0  0  0  0  0  0  0  0  0  0  0  0
    1.3940   -0.3472   -3.0015 H   0  0  0  0  0  0  0  0  0  0  0  0
    0.1278    3.1227    0.3804 H   0  0  0  0  0  0  0  0  0  0  0  0
    3.3785    1.2735    4.0709 H   0  0  0  0  0  0  0  0  0  0  0  0
    3.6405   -0.7428    1.3828 H   0  0  0  0  0  0  0  0  0  0  0  0
    5.3192   -0.3763    1.6495 H   0  0  0  0  0  0  0  0  0  0  0  0
    4.6197    0.1379    0.2180 H   0  0  0  0  0  0  0  0  0  0  0  0
    1.3650   -2.1616    1.3655 H   0  0  0  0  0  0  0  0  0  0  0  0
    4.6385   -3.7510    1.2877 H   0  0  0  0  0  0  0  0  0  0  0  0
   -0.2884    1.1633    1.9593 H   0  0  0  0  0  0  0  0  0  0  0  0
   -1.5466    2.2930    1.4830 H   0  0  0  0  0  0  0  0  0  0  0  0
    3.5115   -6.2889    2.4641 H   0  0  0  0  0  0  0  0  0  0  0  0
    5.1969   -5.8740    2.1706 H   0  0  0  0  0  0  0  0  0  0  0  0
    4.1131   -6.1219    0.7968 H   0  0  0  0  0  0  0  0  0  0  0  0
    0.0322    5.4055    3.5321 H   0  0  0  0  0  0  0  0  0  0  0  0
    6.8274    2.8622    3.4377 H   0  0  0  0  0  0  0  0  0  0  0  0
    3.3993   -1.2557    3.2737 H   0  0  0  0  0  0  0  0  0  0  0  0
    3.6879   -1.7988    4.8242 H   0  0  0  0  0  0  0  0  0  0  0  0
    6.8985    0.7082    3.8196 H   0  0  0  0  0  0  0  0  0  0  0  0
    6.5573   -0.4656    2.8869 H   0  0  0  0  0  0  0  0  0  0  0  0
    6.9758   -0.8577    4.5829 H   0  0  0  0  0  0  0  0  0  0  0  0
    5.5657   -3.0181    4.5313 H   0  0  0  0  0  0  0  0  0  0  0  0
   -2.5393    3.8977    3.0100 H   0  0  0  0  0  0  0  0  0  0  0  0
   -2.1986    5.7441    1.4771 H   0  0  0  0  0  0  0  0  0  0  0  0
   -0.9270    6.8946    1.8252 H   0  0  0  0  0  0  0  0  0  0  0  0
   -2.1719    6.5656    3.0523 H   0  0  0  0  0  0  0  0  0  0  0  0
   -1.4788    0.4319    3.9623 H   0  0  0  0  0  0  0  0  0  0  0  0
   -2.7717    1.2688    3.0888 H   0  0  0  0  0  0  0  0  0  0  0  0
   -2.5337    1.5551    4.8165 H   0  0  0  0  0  0  0  0  0  0  0  0
    6.2189    5.0172    4.6432 H   0  0  0  0  0  0  0  0  0  0  0  0
    3.8595   -0.0640    7.5490 H   0  0  0  0  0  0  0  0  0  0  0  0
    3.0065   -0.9291    6.2990 H   0  0  0  0  0  0  0  0  0  0  0  0
    2.9989    0.8264    6.3208 H   0  0  0  0  0  0  0  0  0  0  0  0
    5.8830   -2.2824    1.5886 H   0  0  0  0  0  0  0  0  0  0  0  0
    6.5262   -3.7361    2.3459 H   0  0  0  0  0  0  0  0  0  0  0  0
    7.1142   -2.2233    2.8490 H   0  0  0  0  0  0  0  0  0  0  0  0
   -2.3111    3.7435    5.3663 H   0  0  0  0  0  0  0  0  0  0  0  0
    0.7752    1.9737    6.3141 H   0  0  0  0  0  0  0  0  0  0  0  0
   -0.9513    1.8628    6.1438 H   0  0  0  0  0  0  0  0  0  0  0  0
   -0.1334    3.4624    6.0937 H   0  0  0  0  0  0  0  0  0  0  0  0
    8.7928    1.5687    6.5300 H   0  0  0  0  0  0  0  0  0  0  0  0
    8.6840    3.6520    4.7455 H   0  0  0  0  0  0  0  0  0  0  0  0
    7.4867    5.2061    6.8316 H   0  0  0  0  0  0  0  0  0  0  0  0
    8.7630    3.5928    7.2652 H   0  0  0  0  0  0  0  0  0  0  0  0
    7.5077    3.0702    8.3237 H   0  0  0  0  0  0  0  0  0  0  0  0
    6.0066    1.1169    7.5044 H   0  0  0  0  0  0  0  0  0  0  0  0
    7.5271    0.5723    8.1991 H   0  0  0  0  0  0  0  0  0  0  0  0
    7.0017   -0.1140    6.6749 H   0  0  0  0  0  0  0  0  0  0  0  0
    3.7326    3.8728    7.9820 H   0  0  0  0  0  0  0  0  0  0  0  0
    4.6349    2.8580    6.9205 H   0  0  0  0  0  0  0  0  0  0  0  0
    4.4537    6.2260    8.0767 H   0  0  0  0  0  0  0  0  0  0  0  0
    5.5782    6.5742    6.7253 H   0  0  0  0  0  0  0  0  0  0  0  0
    6.1761    6.4128    8.3651 H   0  0  0  0  0  0  0  0  0  0  0  0
    2.6673    2.5397    5.6144 H   0  0  0  0  0  0  0  0  0  0  0  0
    3.7404    6.5845    6.0171 H   0  0  0  0  0  0  0  0  0  0  0  0
    2.1935    2.9076    3.4039 H   0  0  0  0  0  0  0  0  0  0  0  0
    3.2795    6.9715    3.6830 H   0  0  0  0  0  0  0  0  0  0  0  0
    4.7873    3.9714    0.9293 H   0  0  0  0  0  0  0  0  0  0  0  0
    3.4750    4.9945   -2.3449 H   0  0  0  0  0  0  0  0  0  0  0  0
    4.9435    4.3456   -1.5946 H   0  0  0  0  0  0  0  0  0  0  0  0
    5.6596    6.6869   -0.9898 H   0  0  0  0  0  0  0  0  0  0  0  0
    4.2376    7.3403   -1.7823 H   0  0  0  0  0  0  0  0  0  0  0  0
    6.5227    5.8441   -3.1142 H   0  0  0  0  0  0  0  0  0  0  0  0
    6.2425    7.5847   -3.1428 H   0  0  0  0  0  0  0  0  0  0  0  0
    4.0433    7.2028   -4.3178 H   0  0  0  0  0  0  0  0  0  0  0  0
    4.4083    5.4816   -4.4105 H   0  0  0  0  0  0  0  0  0  0  0  0
    6.0496    7.7415   -5.6589 H   0  0  0  0  0  0  0  0  0  0  0  0
    4.9521    6.6634   -6.5068 H   0  0  0  0  0  0  0  0  0  0  0  0
    6.3770    4.6977   -5.8861 H   0  0  0  0  0  0  0  0  0  0  0  0
    7.5078    5.7826   -5.0492 H   0  0  0  0  0  0  0  0  0  0  0  0
    8.6871    4.2269   -6.8465 H   0  0  0  0  0  0  0  0  0  0  0  0
    8.7942    5.9896   -8.9867 H   0  0  0  0  0  0  0  0  0  0  0  0
  1  2  2  0  0  0  0
  2  3  1  0  0  0  0
  2  4  1  0  0  0  0
  3  5  1  0  0  0  0
  4  6  1  1  0  0  0
  4  7  1  0  0  0  0
  4 74  1  0  0  0  0
  5  8  1  1  0  0  0
  5  9  1  0  0  0  0
  5 75  1  0  0  0  0
  6 10  1  0  0  0  0
  6 11  1  1  0  0  0
  6 76  1  0  0  0  0
  7 77  1  0  0  0  0
  7 78  1  0  0  0  0
  7 79  1  0  0  0  0
  8 12  1  0  0  0  0
  8 13  1  1  0  0  0
  8 14  1  0  0  0  0
  9 15  1  0  0  0  0
  9 80  1  0  0  0  0
  9 81  1  0  0  0  0
 11 17  1  1  0  0  0
 11 18  1  0  0  0  0
 11 82  1  0  0  0  0
 12 83  1  0  0  0  0
 13 20  1  1  0  0  0
 13 19  1  0  0  0  0
 13 84  1  0  0  0  0
 14 85  1  0  0  0  0
 14 86  1  0  0  0  0
 14 87  1  0  0  0  0
 15 88  1  0  0  0  0
 15 89  1  0  0  0  0
 15 90  1  0  0  0  0
 16 10  1  0  0  0  0
 16 21  1  0  0  0  0
 16 22  1  0  0  0  0
 16 91  1  6  0  0  0
 17 23  1  0  0  0  0
 17 24  1  1  0  0  0
 17 92  1  0  0  0  0
 18 93  1  0  0  0  0
 18 94  1  0  0  0  0
 18 95  1  0  0  0  0
 19 96  1  0  0  0  0
 20 25  1  0  0  0  0
 20 26  1  0  0  0  0
 20 97  1  6  0  0  0
 21 27  1  0  0  0  0
 22 28  1  0  0  0  0
 22 98  1  0  0  0  0
 22 99  1  0  0  0  0
 24 30  1  1  0  0  0
 24 31  1  0  0  0  0
 24 32  1  0  0  0  0
 25 33  2  0  0  0  0
 25 34  1  0  0  0  0
 26100  1  0  0  0  0
 26101  1  0  0  0  0
 26102  1  0  0  0  0
 27 35  1  1  0  0  0
 27 36  1  0  0  0  0
 27103  1  0  0  0  0
 28 37  1  0  0  0  0
 28 38  1  0  0  0  0
 28 35  1  1  0  0  0
 29 23  1  0  0  0  0
 29 39  1  0  0  0  0
 29 40  1  1  0  0  0
 29104  1  0  0  0  0
 30 41  1  0  0  0  0
 31 34  1  0  0  0  0
 31105  1  0  0  0  0
 31106  1  0  0  0  0
 32107  1  0  0  0  0
 32108  1  0  0  0  0
 32109  1  0  0  0  0
 34 42  1  0  0  0  0
 34110  1  1  0  0  0
 35 43  1  0  0  0  0
 35111  1  6  0  0  0
 36112  1  0  0  0  0
 36113  1  0  0  0  0
 36114  1  0  0  0  0
 37 44  1  0  0  0  0
 38115  1  0  0  0  0
 38116  1  0  0  0  0
 38117  1  0  0  0  0
 39 45  1  0  0  0  0
 40 47  1  1  0  0  0
 40 46  1  0  0  0  0
 40118  1  0  0  0  0
 41119  1  0  0  0  0
 41120  1  0  0  0  0
 41121  1  0  0  0  0
 42122  1  0  0  0  0
 42123  1  0  0  0  0
 42124  1  0  0  0  0
 43125  1  0  0  0  0
 44126  1  0  0  0  0
 44127  1  0  0  0  0
 44128  1  0  0  0  0
 45 48  1  0  0  0  0
 45 49  1  0  0  0  0
 45129  1  1  0  0  0
 46130  1  0  0  0  0
 47 48  1  0  0  0  0
 47 50  1  0  0  0  0
 47131  1  1  0  0  0
 48132  1  0  0  0  0
 48133  1  0  0  0  0
 49134  1  0  0  0  0
 49135  1  0  0  0  0
 49136  1  0  0  0  0
 50 51  1  0  0  0  0
 50 52  1  0  0  0  0
 51 53  1  0  0  0  0
 51137  1  0  0  0  0
 51138  1  0  0  0  0
 52139  1  0  0  0  0
 52140  1  0  0  0  0
 52141  1  0  0  0  0
 53 54  2  0  0  0  0
 53 55  1  0  0  0  0
 54 56  1  0  0  0  0
 54142  1  0  0  0  0
 55 57  2  0  0  0  0
 55143  1  0  0  0  0
 56 58  2  0  0  0  0
 56144  1  0  0  0  0
 57 58  1  0  0  0  0
 57145  1  0  0  0  0
 58 59  1  0  0  0  0
 59 60  1  0  0  0  0
 59 61  2  0  0  0  0
 60 62  2  0  0  0  0
 61 63  1  0  0  0  0
 61146  1  0  0  0  0
 62 63  1  0  0  0  0
 63 64  1  0  0  0  0
 64 65  1  0  0  0  0
 64147  1  0  0  0  0
 64148  1  0  0  0  0
 65 66  1  0  0  0  0
 65149  1  0  0  0  0
 65150  1  0  0  0  0
 66 67  1  0  0  0  0
 66151  1  0  0  0  0
 66152  1  0  0  0  0
 67 68  1  0  0  0  0
 67153  1  0  0  0  0
 67154  1  0  0  0  0
 68 69  1  0  0  0  0
 68155  1  0  0  0  0
 68156  1  0  0  0  0
 69 70  1  0  0  0  0
 69157  1  0  0  0  0
 69158  1  0  0  0  0
 70 71  2  0  0  0  0
 70 72  1  0  0  0  0
 72 73  1  0  0  0  0
 72159  1  0  0  0  0
 73160  1  0  0  0  0
M  END
>  <Molecule Name>
2337442

>  <MolRegNo>
2337442

>  <m>
=

>  <Value>
6.67

>  <Unit>
nM

>  <Type>
IC50

>  <pValue>
8.18

>  <Ligand Efficiency>
0

>  <Binding Efficiency>
7.9

>  <Surface Efficiency>
0

>  <Assay Index>
977531

>  <Assay Category>


>  <Assay Organism>
Homo sapiens

>  <Target ID>
11307

>  <Target Name>
Histone deacetylase 6

>  <Target Organism>
Homo sapiens

>  <Target Description>
Target is a single protein chain

>  <Sequence Accession>
Q9UBN7

>  <Reference>
Bioorg. Med. Chem. 23 (24), 7543-7564 (2015)

>  <Pubmed ID>
26585275

>  <DOI>
10.1016/j.bmc.2015.10.045

$$$$
2337360
 OpenBabel03252423443D

156160  0  0  0  0  0  0  0  0999 V2000
    0.5522   -0.2758    0.0203 O   0  0  0  0  0  0  0  0  0  0  0  0
    1.7682   -0.1804   -0.0685 C   0  0  0  0  0  0  0  0  0  0  0  0
    2.5710   -1.2051   -0.4544 O   0  0  0  0  0  0  0  0  0  0  0  0
    2.5591    1.0846    0.2315 C   0  0  2  0  0  0  0  0  0  0  0  0
    1.8980   -2.4409   -0.8092 C   0  0  2  0  0  0  0  0  0  0  0  0
    2.6753    1.2431    1.8378 C   0  0  2  0  0  0  0  0  0  0  0  0
    1.9778    2.1555   -0.7150 C   0  0  0  0  0  0  0  0  0  0  0  0
    2.7123   -3.6588   -0.2219 C   0  0  2  0  0  0  0  0  0  0  0  0
    1.7385   -2.4715   -2.3480 C   0  0  0  0  0  0  0  0  0  0  0  0
    1.9972    2.3834    2.4031 O   0  0  0  0  0  0  0  0  0  0  0  0
    4.1884    1.1911    2.3779 C   0  0  1  0  0  0  0  0  0  0  0  0
    2.1149   -4.8865   -0.6824 O   0  0  0  0  0  0  0  0  0  0  0  0
    2.7063   -3.7119    1.3817 C   0  0  2  0  0  0  0  0  0  0  0  0
    4.1281   -3.6275   -0.8296 C   0  0  0  0  0  0  0  0  0  0  0  0
    0.9101   -1.3200   -2.9118 C   0  0  0  0  0  0  0  0  0  0  0  0
    0.6293    2.5234    2.0273 C   0  0  2  0  0  0  0  0  0  0  0  0
    4.4938    1.2224    3.9797 C   0  0  2  0  0  0  0  0  0  0  0  0
    4.9125    0.0416    1.6856 C   0  0  0  0  0  0  0  0  0  0  0  0
    2.4166   -2.4240    1.9364 O   0  0  0  0  0  0  0  0  0  0  0  0
    4.0252   -4.2210    2.0169 C   0  0  1  0  0  0  0  0  0  0  0  0
    0.0459    3.7601    2.3337 O   0  0  0  0  0  0  0  0  0  0  0  0
   -0.2810    1.3692    2.3259 C   0  0  0  0  0  0  0  0  0  0  0  0
    5.5324    2.2187    4.2662 O   0  0  0  0  0  0  0  0  0  0  0  0
    5.1076   -0.1191    4.7399 C   0  0  1  0  0  0  0  0  0  0  0  0
    4.2059   -3.8209    3.4874 C   0  0  0  0  0  0  0  0  0  0  0  0
    4.2624   -5.7262    1.9024 C   0  0  0  0  0  0  0  0  0  0  0  0
   -0.5964    3.9352    3.5868 C   0  0  2  0  0  0  0  0  0  0  0  0
   -0.7683    1.3011    3.7565 C   0  0  2  0  0  0  0  0  0  0  0  0
    5.1791    3.5870    4.3658 C   0  0  2  0  0  0  0  0  0  0  0  0
    5.0196    0.0347    6.2013 O   0  0  0  0  0  0  0  0  0  0  0  0
    4.4569   -1.4886    4.3526 C   0  0  0  0  0  0  0  0  0  0  0  0
    6.6542   -0.1296    4.6458 C   0  0  0  0  0  0  0  0  0  0  0  0
    3.5016   -4.3347    4.3641 O   0  0  0  0  0  0  0  0  0  0  0  0
    5.2564   -2.7403    3.8681 C   0  0  2  0  0  0  0  0  0  0  0  0
   -1.4076    2.7045    4.1741 C   0  0  1  0  0  0  0  0  0  0  0  0
   -1.3692    5.2232    3.3254 C   0  0  0  0  0  0  0  0  0  0  0  0
    0.3439    1.1442    4.6837 O   0  0  0  0  0  0  0  0  0  0  0  0
   -1.6394    0.0291    3.8221 C   0  0  0  0  0  0  0  0  0  0  0  0
    5.1459    4.2318    3.0851 O   0  0  0  0  0  0  0  0  0  0  0  0
    6.1189    4.4192    5.3039 C   0  0  2  0  0  0  0  0  0  0  0  0
    3.7730    0.0470    6.8650 C   0  0  0  0  0  0  0  0  0  0  0  0
    6.3557   -2.6183    2.8065 C   0  0  0  0  0  0  0  0  0  0  0  0
   -1.1392    2.7917    5.6439 O   0  0  0  0  0  0  0  0  0  0  0  0
   -2.9656    2.8613    4.2530 C   0  0  0  0  0  0  0  0  0  0  0  0
    1.0329   -0.0826    4.8195 C   0  0  0  0  0  0  0  0  0  0  0  0
    6.4133    4.4357    2.4550 C   0  0  1  0  0  0  0  0  0  0  0  0
    5.5503    5.7471    5.4665 O   0  0  0  0  0  0  0  0  0  0  0  0
    7.5737    4.5850    4.7461 C   0  0  2  0  0  0  0  0  0  0  0  0
   -4.0116    3.0468    3.1986 N   0  0  0  0  0  0  0  0  0  0  0  0
    7.4189    5.1837    3.3323 C   0  0  0  0  0  0  0  0  0  0  0  0
    7.0115    3.1668    1.8536 C   0  0  0  0  0  0  0  0  0  0  0  0
    8.3925    3.3465    4.8619 N   0  0  0  0  0  0  0  0  0  0  0  0
   -4.1280    1.8362    2.3763 C   0  0  0  0  0  0  0  0  0  0  0  0
   -5.2583    3.2857    3.9746 C   0  0  0  0  0  0  0  0  0  0  0  0
    8.7707    3.0846    6.2582 C   0  0  0  0  0  0  0  0  0  0  0  0
    9.6032    3.2848    4.0437 C   0  0  0  0  0  0  0  0  0  0  0  0
   -5.2639    1.6270    1.3938 C   0  0  0  0  0  0  0  0  0  0  0  0
   -6.2534    2.5561    1.0431 C   0  0  0  0  0  0  0  0  0  0  0  0
   -5.3742    0.3283    0.8772 C   0  0  0  0  0  0  0  0  0  0  0  0
   -7.4482    2.1287    0.4513 C   0  0  0  0  0  0  0  0  0  0  0  0
   -6.5317   -0.0817    0.2406 C   0  0  0  0  0  0  0  0  0  0  0  0
   -7.6271    0.7908    0.1233 C   0  0  0  0  0  0  0  0  0  0  0  0
   -8.9127    0.2288   -0.2448 C   0  0  0  0  0  0  0  0  0  0  0  0
   -9.9527    0.8580   -0.8590 N   0  0  0  0  0  0  0  0  0  0  0  0
   -9.2644   -1.0760    0.0196 C   0  0  0  0  0  0  0  0  0  0  0  0
  -10.8846   -0.0675   -1.0900 N   0  0  0  0  0  0  0  0  0  0  0  0
  -10.4605   -1.2294   -0.5955 N   0  0  0  0  0  0  0  0  0  0  0  0
  -11.0384   -2.4774   -1.0510 C   0  0  0  0  0  0  0  0  0  0  0  0
  -11.0432   -3.5654   -0.0009 C   0  0  0  0  0  0  0  0  0  0  0  0
  -10.0715   -3.9025    0.6715 O   0  0  0  0  0  0  0  0  0  0  0  0
  -12.2507   -4.2262    0.1275 N   0  0  0  0  0  0  0  0  0  0  0  0
  -12.2313   -5.3327    1.0035 O   0  0  0  0  0  0  0  0  0  0  0  0
    3.5531    0.9565   -0.1873 H   0  0  0  0  0  0  0  0  0  0  0  0
    0.8899   -2.4985   -0.3809 H   0  0  0  0  0  0  0  0  0  0  0  0
    2.2263    0.3534    2.2861 H   0  0  0  0  0  0  0  0  0  0  0  0
    0.8869    2.1097   -0.8203 H   0  0  0  0  0  0  0  0  0  0  0  0
    2.3229    1.9603   -1.7395 H   0  0  0  0  0  0  0  0  0  0  0  0
    2.2891    3.1689   -0.4498 H   0  0  0  0  0  0  0  0  0  0  0  0
    1.2731   -3.4135   -2.6516 H   0  0  0  0  0  0  0  0  0  0  0  0
    2.7177   -2.4063   -2.8316 H   0  0  0  0  0  0  0  0  0  0  0  0
    4.6066    2.1142    1.9869 H   0  0  0  0  0  0  0  0  0  0  0  0
    1.1894   -4.9201   -0.3808 H   0  0  0  0  0  0  0  0  0  0  0  0
    1.8935   -4.3719    1.7138 H   0  0  0  0  0  0  0  0  0  0  0  0
    4.0982   -3.6874   -1.9209 H   0  0  0  0  0  0  0  0  0  0  0  0
    4.7201   -4.5007   -0.5455 H   0  0  0  0  0  0  0  0  0  0  0  0
    4.6715   -2.7198   -0.5480 H   0  0  0  0  0  0  0  0  0  0  0  0
   -0.0681   -1.2550   -2.4298 H   0  0  0  0  0  0  0  0  0  0  0  0
    0.7499   -1.4672   -3.9842 H   0  0  0  0  0  0  0  0  0  0  0  0
    1.4265   -0.3596   -2.7946 H   0  0  0  0  0  0  0  0  0  0  0  0
    0.6190    2.6113    0.9591 H   0  0  0  0  0  0  0  0  0  0  0  0
    3.5927    1.5451    4.5065 H   0  0  0  0  0  0  0  0  0  0  0  0
    4.3460   -0.8885    1.8251 H   0  0  0  0  0  0  0  0  0  0  0  0
    5.9218   -0.0704    2.0371 H   0  0  0  0  0  0  0  0  0  0  0  0
    5.0154    0.1510    0.6118 H   0  0  0  0  0  0  0  0  0  0  0  0
    1.5278   -2.1558    1.6428 H   0  0  0  0  0  0  0  0  0  0  0  0
    4.8289   -3.7547    1.4671 H   0  0  0  0  0  0  0  0  0  0  0  0
    0.2112    0.4270    2.1054 H   0  0  0  0  0  0  0  0  0  0  0  0
   -1.1417    1.4487    1.6532 H   0  0  0  0  0  0  0  0  0  0  0  0
    3.6055   -6.2983    2.5641 H   0  0  0  0  0  0  0  0  0  0  0  0
    5.2955   -5.9535    2.1967 H   0  0  0  0  0  0  0  0  0  0  0  0
    4.1247   -6.0925    0.8828 H   0  0  0  0  0  0  0  0  0  0  0  0
    0.2004    4.1902    4.2998 H   0  0  0  0  0  0  0  0  0  0  0  0
    4.1699    3.6660    4.7889 H   0  0  0  0  0  0  0  0  0  0  0  0
    3.6160   -1.3008    3.6878 H   0  0  0  0  0  0  0  0  0  0  0  0
    3.9540   -1.8829    5.2423 H   0  0  0  0  0  0  0  0  0  0  0  0
    7.1000    0.6255    5.3062 H   0  0  0  0  0  0  0  0  0  0  0  0
    7.0368    0.0708    3.6473 H   0  0  0  0  0  0  0  0  0  0  0  0
    7.0688   -1.0729    5.0170 H   0  0  0  0  0  0  0  0  0  0  0  0
    5.7702   -3.1513    4.7495 H   0  0  0  0  0  0  0  0  0  0  0  0
   -2.0754    5.0998    2.4837 H   0  0  0  0  0  0  0  0  0  0  0  0
   -0.6769    6.0060    2.9746 H   0  0  0  0  0  0  0  0  0  0  0  0
   -1.9024    5.6180    4.1904 H   0  0  0  0  0  0  0  0  0  0  0  0
   -1.0968   -0.8317    3.4083 H   0  0  0  0  0  0  0  0  0  0  0  0
   -2.5130    0.0662    3.1827 H   0  0  0  0  0  0  0  0  0  0  0  0
   -1.9143   -0.2464    4.8424 H   0  0  0  0  0  0  0  0  0  0  0  0
    6.1391    3.9878    6.3078 H   0  0  0  0  0  0  0  0  0  0  0  0
    3.9706    0.1851    7.9331 H   0  0  0  0  0  0  0  0  0  0  0  0
    3.2435   -0.9029    6.7799 H   0  0  0  0  0  0  0  0  0  0  0  0
    3.1500    0.8743    6.5303 H   0  0  0  0  0  0  0  0  0  0  0  0
    5.9996   -2.2373    1.8499 H   0  0  0  0  0  0  0  0  0  0  0  0
    6.7857   -3.6062    2.5988 H   0  0  0  0  0  0  0  0  0  0  0  0
    7.1972   -1.9967    3.1017 H   0  0  0  0  0  0  0  0  0  0  0  0
   -0.4850    2.0855    5.8253 H   0  0  0  0  0  0  0  0  0  0  0  0
   -3.0866    3.7467    4.8967 H   0  0  0  0  0  0  0  0  0  0  0  0
   -3.2994    2.0333    4.8990 H   0  0  0  0  0  0  0  0  0  0  0  0
    1.1057   -0.3033    5.8872 H   0  0  0  0  0  0  0  0  0  0  0  0
    2.0402    0.0506    4.4439 H   0  0  0  0  0  0  0  0  0  0  0  0
    0.6037   -0.9497    4.3239 H   0  0  0  0  0  0  0  0  0  0  0  0
    6.1885    5.0899    1.6036 H   0  0  0  0  0  0  0  0  0  0  0  0
    5.0895    5.9477    4.6257 H   0  0  0  0  0  0  0  0  0  0  0  0
    8.0837    5.3706    5.3284 H   0  0  0  0  0  0  0  0  0  0  0  0
    7.0527    6.2169    3.4482 H   0  0  0  0  0  0  0  0  0  0  0  0
    8.3811    5.2954    2.8220 H   0  0  0  0  0  0  0  0  0  0  0  0
    7.2514    2.4211    2.6168 H   0  0  0  0  0  0  0  0  0  0  0  0
    7.9229    3.3977    1.3024 H   0  0  0  0  0  0  0  0  0  0  0  0
    6.3234    2.6976    1.1544 H   0  0  0  0  0  0  0  0  0  0  0  0
   -4.2312    0.9910    3.0727 H   0  0  0  0  0  0  0  0  0  0  0  0
   -3.2082    1.7215    1.8002 H   0  0  0  0  0  0  0  0  0  0  0  0
   -5.1576    4.1997    4.5724 H   0  0  0  0  0  0  0  0  0  0  0  0
   -5.4860    2.4559    4.6571 H   0  0  0  0  0  0  0  0  0  0  0  0
   -6.1432    3.4552    3.3654 H   0  0  0  0  0  0  0  0  0  0  0  0
    9.2978    2.1263    6.3372 H   0  0  0  0  0  0  0  0  0  0  0  0
    7.9016    2.9995    6.9133 H   0  0  0  0  0  0  0  0  0  0  0  0
    9.4311    3.8661    6.6550 H   0  0  0  0  0  0  0  0  0  0  0  0
   10.1122    2.3252    4.2044 H   0  0  0  0  0  0  0  0  0  0  0  0
   10.3113    4.0896    4.2630 H   0  0  0  0  0  0  0  0  0  0  0  0
    9.3866    3.2992    2.9751 H   0  0  0  0  0  0  0  0  0  0  0  0
   -6.1387    3.6050    1.3079 H   0  0  0  0  0  0  0  0  0  0  0  0
   -4.5915   -0.4088    1.0457 H   0  0  0  0  0  0  0  0  0  0  0  0
   -8.2565    2.8489    0.3026 H   0  0  0  0  0  0  0  0  0  0  0  0
   -6.6007   -1.1074   -0.1055 H   0  0  0  0  0  0  0  0  0  0  0  0
   -8.7404   -1.8919    0.5120 H   0  0  0  0  0  0  0  0  0  0  0  0
  -10.4209   -2.8169   -1.8916 H   0  0  0  0  0  0  0  0  0  0  0  0
  -12.0458   -2.2737   -1.4190 H   0  0  0  0  0  0  0  0  0  0  0  0
  -12.9502   -4.2477   -0.6070 H   0  0  0  0  0  0  0  0  0  0  0  0
  -11.3183   -5.3094    1.3696 H   0  0  0  0  0  0  0  0  0  0  0  0
  1  2  2  0  0  0  0
  2  3  1  0  0  0  0
  2  4  1  0  0  0  0
  3  5  1  0  0  0  0
  4  6  1  1  0  0  0
  4  7  1  0  0  0  0
  4 73  1  0  0  0  0
  5  8  1  1  0  0  0
  5  9  1  0  0  0  0
  5 74  1  0  0  0  0
  6 10  1  0  0  0  0
  6 11  1  1  0  0  0
  6 75  1  0  0  0  0
  7 76  1  0  0  0  0
  7 77  1  0  0  0  0
  7 78  1  0  0  0  0
  8 12  1  0  0  0  0
  8 13  1  1  0  0  0
  8 14  1  0  0  0  0
  9 15  1  0  0  0  0
  9 79  1  0  0  0  0
  9 80  1  0  0  0  0
 11 17  1  1  0  0  0
 11 18  1  0  0  0  0
 11 81  1  0  0  0  0
 12 82  1  0  0  0  0
 13 20  1  1  0  0  0
 13 19  1  0  0  0  0
 13 83  1  0  0  0  0
 14 84  1  0  0  0  0
 14 85  1  0  0  0  0
 14 86  1  0  0  0  0
 15 87  1  0  0  0  0
 15 88  1  0  0  0  0
 15 89  1  0  0  0  0
 16 10  1  0  0  0  0
 16 21  1  0  0  0  0
 16 22  1  0  0  0  0
 16 90  1  6  0  0  0
 17 23  1  0  0  0  0
 17 24  1  1  0  0  0
 17 91  1  0  0  0  0
 18 92  1  0  0  0  0
 18 93  1  0  0  0  0
 18 94  1  0  0  0  0
 19 95  1  0  0  0  0
 20 25  1  0  0  0  0
 20 26  1  0  0  0  0
 20 96  1  6  0  0  0
 21 27  1  0  0  0  0
 22 28  1  0  0  0  0
 22 97  1  0  0  0  0
 22 98  1  0  0  0  0
 24 30  1  1  0  0  0
 24 31  1  0  0  0  0
 24 32  1  0  0  0  0
 25 33  2  0  0  0  0
 25 34  1  0  0  0  0
 26 99  1  0  0  0  0
 26100  1  0  0  0  0
 26101  1  0  0  0  0
 27 35  1  1  0  0  0
 27 36  1  0  0  0  0
 27102  1  0  0  0  0
 28 37  1  0  0  0  0
 28 38  1  0  0  0  0
 28 35  1  1  0  0  0
 29 23  1  0  0  0  0
 29 39  1  0  0  0  0
 29 40  1  1  0  0  0
 29103  1  0  0  0  0
 30 41  1  0  0  0  0
 31 34  1  0  0  0  0
 31104  1  0  0  0  0
 31105  1  0  0  0  0
 32106  1  0  0  0  0
 32107  1  0  0  0  0
 32108  1  0  0  0  0
 34 42  1  0  0  0  0
 34109  1  1  0  0  0
 35 43  1  1  0  0  0
 35 44  1  0  0  0  0
 36110  1  0  0  0  0
 36111  1  0  0  0  0
 36112  1  0  0  0  0
 37 45  1  0  0  0  0
 38113  1  0  0  0  0
 38114  1  0  0  0  0
 38115  1  0  0  0  0
 39 46  1  0  0  0  0
 40 48  1  6  0  0  0
 40 47  1  0  0  0  0
 40116  1  0  0  0  0
 41117  1  0  0  0  0
 41118  1  0  0  0  0
 41119  1  0  0  0  0
 42120  1  0  0  0  0
 42121  1  0  0  0  0
 42122  1  0  0  0  0
 43123  1  0  0  0  0
 44 49  1  0  0  0  0
 44124  1  0  0  0  0
 44125  1  0  0  0  0
 45126  1  0  0  0  0
 45127  1  0  0  0  0
 45128  1  0  0  0  0
 46 50  1  0  0  0  0
 46 51  1  0  0  0  0
 46129  1  6  0  0  0
 47130  1  0  0  0  0
 48 50  1  0  0  0  0
 48 52  1  0  0  0  0
 48131  1  1  0  0  0
 49 53  1  0  0  0  0
 49 54  1  0  0  0  0
 50132  1  0  0  0  0
 50133  1  0  0  0  0
 51134  1  0  0  0  0
 51135  1  0  0  0  0
 51136  1  0  0  0  0
 52 55  1  0  0  0  0
 52 56  1  0  0  0  0
 53 57  1  0  0  0  0
 53137  1  0  0  0  0
 53138  1  0  0  0  0
 54139  1  0  0  0  0
 54140  1  0  0  0  0
 54141  1  0  0  0  0
 55142  1  0  0  0  0
 55143  1  0  0  0  0
 55144  1  0  0  0  0
 56145  1  0  0  0  0
 56146  1  0  0  0  0
 56147  1  0  0  0  0
 57 58  2  0  0  0  0
 57 59  1  0  0  0  0
 58 60  1  0  0  0  0
 58148  1  0  0  0  0
 59 61  2  0  0  0  0
 59149  1  0  0  0  0
 60 62  2  0  0  0  0
 60150  1  0  0  0  0
 61 62  1  0  0  0  0
 61151  1  0  0  0  0
 62 63  1  0  0  0  0
 63 64  1  0  0  0  0
 63 65  2  0  0  0  0
 64 66  2  0  0  0  0
 65 67  1  0  0  0  0
 65152  1  0  0  0  0
 66 67  1  0  0  0  0
 67 68  1  0  0  0  0
 68 69  1  0  0  0  0
 68153  1  0  0  0  0
 68154  1  0  0  0  0
 69 70  2  0  0  0  0
 69 71  1  0  0  0  0
 71 72  1  0  0  0  0
 71155  1  0  0  0  0
 72156  1  0  0  0  0
M  END
>  <Molecule Name>
2337360

>  <MolRegNo>
2337360

>  <m>
=

>  <Value>
5350

>  <Unit>
nM

>  <Type>
IC50

>  <pValue>
5.27

>  <Ligand Efficiency>
0

>  <Binding Efficiency>
5.16

>  <Surface Efficiency>
0

>  <Assay Index>
977531

>  <Assay Category>


>  <Assay Organism>
Homo sapiens

>  <Target ID>
11307

>  <Target Name>
Histone deacetylase 6

>  <Target Organism>
Homo sapiens

>  <Target Description>
Target is a single protein chain

>  <Sequence Accession>
Q9UBN7

>  <Reference>
Bioorg. Med. Chem. 23 (24), 7543-7564 (2015)

>  <Pubmed ID>
26585275

>  <DOI>
10.1016/j.bmc.2015.10.045

$$$$
2337426
 OpenBabel03252423443D

159163  0  0  0  0  0  0  0  0999 V2000
    0.7145   -0.2350   -0.0929 O   0  0  0  0  0  0  0  0  0  0  0  0
    1.9360   -0.1696   -0.0789 C   0  0  0  0  0  0  0  0  0  0  0  0
    2.7386   -1.2260   -0.3388 O   0  0  0  0  0  0  0  0  0  0  0  0
    2.7138    1.0917    0.2501 C   0  0  2  0  0  0  0  0  0  0  0  0
    2.0824   -2.4519   -0.7790 C   0  0  2  0  0  0  0  0  0  0  0  0
    2.8185    1.2098    1.8618 C   0  0  2  0  0  0  0  0  0  0  0  0
    2.1068    2.1656   -0.6795 C   0  0  0  0  0  0  0  0  0  0  0  0
    2.8799   -3.6981   -0.2215 C   0  0  2  0  0  0  0  0  0  0  0  0
    1.9745   -2.4443   -2.3271 C   0  0  0  0  0  0  0  0  0  0  0  0
    2.1426    2.3345    2.4501 O   0  0  0  0  0  0  0  0  0  0  0  0
    4.3294    1.1351    2.4047 C   0  0  1  0  0  0  0  0  0  0  0  0
    2.2577   -4.8987   -0.7226 O   0  0  0  0  0  0  0  0  0  0  0  0
    2.8681   -3.8143    1.3850 C   0  0  2  0  0  0  0  0  0  0  0  0
    4.2946   -3.6885   -0.8357 C   0  0  0  0  0  0  0  0  0  0  0  0
    1.1880   -1.2791   -2.9156 C   0  0  0  0  0  0  0  0  0  0  0  0
    0.7727    2.4781    2.0882 C   0  0  2  0  0  0  0  0  0  0  0  0
    4.6587    1.1821    4.0033 C   0  0  2  0  0  0  0  0  0  0  0  0
    5.0398   -0.0156    1.7118 C   0  0  0  0  0  0  0  0  0  0  0  0
    2.4119   -2.6216    2.0278 O   0  0  0  0  0  0  0  0  0  0  0  0
    4.2112   -4.2511    2.0146 C   0  0  1  0  0  0  0  0  0  0  0  0
    0.1998    3.7025    2.4439 O   0  0  0  0  0  0  0  0  0  0  0  0
   -0.1607    1.3350    2.3825 C   0  0  0  0  0  0  0  0  0  0  0  0
    5.7127    2.1738    4.2675 O   0  0  0  0  0  0  0  0  0  0  0  0
    5.2744   -0.1618    4.7646 C   0  0  1  0  0  0  0  0  0  0  0  0
    4.3960   -3.8568    3.4858 C   0  0  0  0  0  0  0  0  0  0  0  0
    4.4862   -5.7488    1.8988 C   0  0  0  0  0  0  0  0  0  0  0  0
   -0.3385    3.8546    3.7439 C   0  0  2  0  0  0  0  0  0  0  0  0
   -0.6102    1.2361    3.8313 C   0  0  2  0  0  0  0  0  0  0  0  0
    5.3735    3.5463    4.3821 C   0  0  2  0  0  0  0  0  0  0  0  0
    5.1744    0.0005    6.2116 O   0  0  0  0  0  0  0  0  0  0  0  0
    4.6387   -1.5382    4.3712 C   0  0  0  0  0  0  0  0  0  0  0  0
    6.8234   -0.1684    4.6679 C   0  0  0  0  0  0  0  0  0  0  0  0
    3.7038   -4.3790    4.3659 O   0  0  0  0  0  0  0  0  0  0  0  0
    5.4483   -2.7780    3.8664 C   0  0  2  0  0  0  0  0  0  0  0  0
   -1.2203    2.6288    4.3234 C   0  0  1  0  0  0  0  0  0  0  0  0
   -1.0525    5.2036    3.5108 C   0  0  0  0  0  0  0  0  0  0  0  0
    0.5147    1.0421    4.7303 O   0  0  0  0  0  0  0  0  0  0  0  0
   -1.5265   -0.0054    3.8548 C   0  0  0  0  0  0  0  0  0  0  0  0
    5.3039    4.1923    3.1044 O   0  0  0  0  0  0  0  0  0  0  0  0
    6.3421    4.3789    5.2944 C   0  0  2  0  0  0  0  0  0  0  0  0
    3.9277   -0.0360    6.8857 C   0  0  0  0  0  0  0  0  0  0  0  0
    6.5432   -2.6445    2.8064 C   0  0  0  0  0  0  0  0  0  0  0  0
   -1.0470    2.6899    5.7727 O   0  0  0  0  0  0  0  0  0  0  0  0
   -2.7460    2.9071    4.1053 C   0  0  0  0  0  0  0  0  0  0  0  0
    1.1959   -0.1953    4.7982 C   0  0  0  0  0  0  0  0  0  0  0  0
    6.5551    4.4034    2.4388 C   0  0  1  0  0  0  0  0  0  0  0  0
    5.7774    5.7071    5.4758 O   0  0  0  0  0  0  0  0  0  0  0  0
    7.7801    4.5539    4.6950 C   0  0  2  0  0  0  0  0  0  0  0  0
   -3.8935    2.1521    4.7302 N   0  0  0  0  0  0  0  0  0  0  0  0
    7.5795    5.1591    3.2885 C   0  0  0  0  0  0  0  0  0  0  0  0
    7.1481    3.1387    1.8321 C   0  0  0  0  0  0  0  0  0  0  0  0
    8.6029    3.3156    4.7799 N   0  0  0  0  0  0  0  0  0  0  0  0
   -3.7565    2.0055    6.2126 C   0  0  0  0  0  0  0  0  0  0  0  0
   -5.0949    2.9734    4.4259 C   0  0  0  0  0  0  0  0  0  0  0  0
    9.0037    3.0355    6.1661 C   0  0  0  0  0  0  0  0  0  0  0  0
    9.7996    3.2687    3.9393 C   0  0  0  0  0  0  0  0  0  0  0  0
   -5.0133    1.5501    6.9653 C   0  0  0  0  0  0  0  0  0  0  0  0
   -5.9080    0.5964    6.4558 C   0  0  0  0  0  0  0  0  0  0  0  0
   -5.3279    2.1543    8.1910 C   0  0  0  0  0  0  0  0  0  0  0  0
   -7.1814    0.4393    7.0254 C   0  0  0  0  0  0  0  0  0  0  0  0
   -6.5844    1.9705    8.7761 C   0  0  0  0  0  0  0  0  0  0  0  0
   -7.5602    1.1820    8.1518 C   0  0  0  0  0  0  0  0  0  0  0  0
   -8.9415    1.2087    8.6047 C   0  0  0  0  0  0  0  0  0  0  0  0
  -10.0002    0.6451    7.9362 N   0  0  0  0  0  0  0  0  0  0  0  0
   -9.4158    1.8608    9.7195 C   0  0  0  0  0  0  0  0  0  0  0  0
  -11.1126    0.9229    8.6081 N   0  0  0  0  0  0  0  0  0  0  0  0
  -10.7460    1.5910    9.7179 N   0  0  0  0  0  0  0  0  0  0  0  0
  -11.6658    1.7156   10.8292 C   0  0  0  0  0  0  0  0  0  0  0  0
  -12.2924    0.3632   11.1219 C   0  0  0  0  0  0  0  0  0  0  0  0
  -13.0923    0.3457   12.3905 C   0  0  0  0  0  0  0  0  0  0  0  0
  -13.2897    1.3220   13.1073 O   0  0  0  0  0  0  0  0  0  0  0  0
  -13.6094   -0.8987   12.6603 N   0  0  0  0  0  0  0  0  0  0  0  0
  -14.3412   -1.0330   13.8580 O   0  0  0  0  0  0  0  0  0  0  0  0
    3.7121    0.9886   -0.1707 H   0  0  0  0  0  0  0  0  0  0  0  0
    1.0647   -2.5130   -0.3709 H   0  0  0  0  0  0  0  0  0  0  0  0
    2.3590    0.3143    2.2860 H   0  0  0  0  0  0  0  0  0  0  0  0
    1.0125    2.1223   -0.7580 H   0  0  0  0  0  0  0  0  0  0  0  0
    2.4206    1.9662   -1.7136 H   0  0  0  0  0  0  0  0  0  0  0  0
    2.4229    3.1790   -0.4249 H   0  0  0  0  0  0  0  0  0  0  0  0
    1.5101   -3.3771   -2.6643 H   0  0  0  0  0  0  0  0  0  0  0  0
    2.9703   -2.3863   -2.7776 H   0  0  0  0  0  0  0  0  0  0  0  0
    4.7559    2.0609    2.0073 H   0  0  0  0  0  0  0  0  0  0  0  0
    1.3447   -4.9347   -0.3827 H   0  0  0  0  0  0  0  0  0  0  0  0
    2.1188   -4.5669    1.6616 H   0  0  0  0  0  0  0  0  0  0  0  0
    4.2618   -3.7716   -1.9262 H   0  0  0  0  0  0  0  0  0  0  0  0
    4.8838   -4.5601   -0.5421 H   0  0  0  0  0  0  0  0  0  0  0  0
    4.8490   -2.7805   -0.5767 H   0  0  0  0  0  0  0  0  0  0  0  0
    0.1941   -1.1974   -2.4677 H   0  0  0  0  0  0  0  0  0  0  0  0
    1.0599   -1.4219   -3.9937 H   0  0  0  0  0  0  0  0  0  0  0  0
    1.7208   -0.3330   -2.7812 H   0  0  0  0  0  0  0  0  0  0  0  0
    0.7518    2.5921    1.0244 H   0  0  0  0  0  0  0  0  0  0  0  0
    3.7669    1.5125    4.5414 H   0  0  0  0  0  0  0  0  0  0  0  0
    4.5023   -0.9522    1.8389 H   0  0  0  0  0  0  0  0  0  0  0  0
    6.0660   -0.0868    2.0412 H   0  0  0  0  0  0  0  0  0  0  0  0
    5.1342    0.0892    0.6328 H   0  0  0  0  0  0  0  0  0  0  0  0
    2.5385   -1.8754    1.4290 H   0  0  0  0  0  0  0  0  0  0  0  0
    4.9901   -3.7526    1.4563 H   0  0  0  0  0  0  0  0  0  0  0  0
    0.3006    0.3947    2.0901 H   0  0  0  0  0  0  0  0  0  0  0  0
   -1.0516    1.4715    1.7522 H   0  0  0  0  0  0  0  0  0  0  0  0
    3.8365   -6.3310    2.5597 H   0  0  0  0  0  0  0  0  0  0  0  0
    5.5222   -5.9557    2.1928 H   0  0  0  0  0  0  0  0  0  0  0  0
    4.3485   -6.1185    0.8804 H   0  0  0  0  0  0  0  0  0  0  0  0
    0.4960    4.0404    4.4309 H   0  0  0  0  0  0  0  0  0  0  0  0
    4.3780    3.6290    4.8357 H   0  0  0  0  0  0  0  0  0  0  0  0
    3.7839   -1.3621    3.7198 H   0  0  0  0  0  0  0  0  0  0  0  0
    4.1585   -1.9457    5.2676 H   0  0  0  0  0  0  0  0  0  0  0  0
    7.2703    0.5817    5.3328 H   0  0  0  0  0  0  0  0  0  0  0  0
    7.2016    0.0401    3.6675 H   0  0  0  0  0  0  0  0  0  0  0  0
    7.2421   -1.1144    5.0280 H   0  0  0  0  0  0  0  0  0  0  0  0
    5.9663   -3.1974    4.7422 H   0  0  0  0  0  0  0  0  0  0  0  0
   -1.7701    5.1251    2.6798 H   0  0  0  0  0  0  0  0  0  0  0  0
   -0.3251    5.9494    3.1578 H   0  0  0  0  0  0  0  0  0  0  0  0
   -1.5526    5.6158    4.3889 H   0  0  0  0  0  0  0  0  0  0  0  0
   -1.0185   -0.8597    3.3731 H   0  0  0  0  0  0  0  0  0  0  0  0
   -2.4312    0.1282    3.2582 H   0  0  0  0  0  0  0  0  0  0  0  0
   -1.7599   -0.3417    4.8652 H   0  0  0  0  0  0  0  0  0  0  0  0
    6.3925    3.9483    6.2973 H   0  0  0  0  0  0  0  0  0  0  0  0
    4.1204    0.1397    7.9485 H   0  0  0  0  0  0  0  0  0  0  0  0
    3.4039   -0.9851    6.8032 H   0  0  0  0  0  0  0  0  0  0  0  0
    3.3003    0.7874    6.5551 H   0  0  0  0  0  0  0  0  0  0  0  0
    6.1820   -2.2672    1.8467 H   0  0  0  0  0  0  0  0  0  0  0  0
    6.9830   -3.6265    2.5962 H   0  0  0  0  0  0  0  0  0  0  0  0
    7.3749   -2.0117    3.0957 H   0  0  0  0  0  0  0  0  0  0  0  0
   -0.4697    1.9259    5.9822 H   0  0  0  0  0  0  0  0  0  0  0  0
   -2.9194    2.9244    3.0222 H   0  0  0  0  0  0  0  0  0  0  0  0
   -2.8908    3.9286    4.4761 H   0  0  0  0  0  0  0  0  0  0  0  0
    1.2720   -0.4701    5.8543 H   0  0  0  0  0  0  0  0  0  0  0  0
    2.2066   -0.0438    4.4362 H   0  0  0  0  0  0  0  0  0  0  0  0
    0.7608   -1.0282    4.2526 H   0  0  0  0  0  0  0  0  0  0  0  0
    6.3016    5.0544    1.5941 H   0  0  0  0  0  0  0  0  0  0  0  0
    5.3185    5.9205    4.6389 H   0  0  0  0  0  0  0  0  0  0  0  0
    8.3046    5.3373    5.2652 H   0  0  0  0  0  0  0  0  0  0  0  0
    7.2132    6.1885    3.4172 H   0  0  0  0  0  0  0  0  0  0  0  0
    8.5269    5.2759    2.7505 H   0  0  0  0  0  0  0  0  0  0  0  0
    7.4277    2.4041    2.5894 H   0  0  0  0  0  0  0  0  0  0  0  0
    8.0365    3.3794    1.2424 H   0  0  0  0  0  0  0  0  0  0  0  0
    6.4454    2.6502    1.1589 H   0  0  0  0  0  0  0  0  0  0  0  0
   -3.4688    2.9780    6.6359 H   0  0  0  0  0  0  0  0  0  0  0  0
   -2.9697    1.2823    6.4495 H   0  0  0  0  0  0  0  0  0  0  0  0
   -5.2005    3.0934    3.3436 H   0  0  0  0  0  0  0  0  0  0  0  0
   -5.0395    3.9733    4.8822 H   0  0  0  0  0  0  0  0  0  0  0  0
   -6.0310    2.5153    4.7577 H   0  0  0  0  0  0  0  0  0  0  0  0
    9.5401    2.0808    6.2222 H   0  0  0  0  0  0  0  0  0  0  0  0
    8.1444    2.9290    6.8328 H   0  0  0  0  0  0  0  0  0  0  0  0
    9.6628    3.8159    6.5659 H   0  0  0  0  0  0  0  0  0  0  0  0
   10.3104    2.3060    4.0751 H   0  0  0  0  0  0  0  0  0  0  0  0
   10.5125    4.0691    4.1580 H   0  0  0  0  0  0  0  0  0  0  0  0
    9.5641    3.3003    2.8746 H   0  0  0  0  0  0  0  0  0  0  0  0
   -5.6631    0.0490    5.5480 H   0  0  0  0  0  0  0  0  0  0  0  0
   -4.6248    2.8291    8.6732 H   0  0  0  0  0  0  0  0  0  0  0  0
   -7.8978   -0.2291    6.5491 H   0  0  0  0  0  0  0  0  0  0  0  0
   -6.8004    2.5057    9.6979 H   0  0  0  0  0  0  0  0  0  0  0  0
   -8.9476    2.4360   10.5022 H   0  0  0  0  0  0  0  0  0  0  0  0
  -12.4154    2.4756   10.5731 H   0  0  0  0  0  0  0  0  0  0  0  0
  -11.0964    2.0817   11.6906 H   0  0  0  0  0  0  0  0  0  0  0  0
  -11.5080   -0.4008   11.1991 H   0  0  0  0  0  0  0  0  0  0  0  0
  -12.9619    0.0740   10.3031 H   0  0  0  0  0  0  0  0  0  0  0  0
  -13.3203   -1.7527   12.1951 H   0  0  0  0  0  0  0  0  0  0  0  0
  -14.3417   -0.1180   14.2084 H   0  0  0  0  0  0  0  0  0  0  0  0
  1  2  2  0  0  0  0
  2  3  1  0  0  0  0
  2  4  1  0  0  0  0
  3  5  1  0  0  0  0
  4  6  1  1  0  0  0
  4  7  1  0  0  0  0
  4 74  1  0  0  0  0
  5  8  1  1  0  0  0
  5  9  1  0  0  0  0
  5 75  1  0  0  0  0
  6 10  1  0  0  0  0
  6 11  1  1  0  0  0
  6 76  1  0  0  0  0
  7 77  1  0  0  0  0
  7 78  1  0  0  0  0
  7 79  1  0  0  0  0
  8 12  1  0  0  0  0
  8 13  1  1  0  0  0
  8 14  1  0  0  0  0
  9 15  1  0  0  0  0
  9 80  1  0  0  0  0
  9 81  1  0  0  0  0
 11 17  1  1  0  0  0
 11 18  1  0  0  0  0
 11 82  1  0  0  0  0
 12 83  1  0  0  0  0
 13 20  1  1  0  0  0
 13 19  1  0  0  0  0
 13 84  1  0  0  0  0
 14 85  1  0  0  0  0
 14 86  1  0  0  0  0
 14 87  1  0  0  0  0
 15 88  1  0  0  0  0
 15 89  1  0  0  0  0
 15 90  1  0  0  0  0
 16 10  1  0  0  0  0
 16 21  1  0  0  0  0
 16 22  1  0  0  0  0
 16 91  1  6  0  0  0
 17 23  1  0  0  0  0
 17 24  1  1  0  0  0
 17 92  1  0  0  0  0
 18 93  1  0  0  0  0
 18 94  1  0  0  0  0
 18 95  1  0  0  0  0
 19 96  1  0  0  0  0
 20 25  1  0  0  0  0
 20 26  1  0  0  0  0
 20 97  1  6  0  0  0
 21 27  1  0  0  0  0
 22 28  1  0  0  0  0
 22 98  1  0  0  0  0
 22 99  1  0  0  0  0
 24 30  1  1  0  0  0
 24 31  1  0  0  0  0
 24 32  1  0  0  0  0
 25 33  2  0  0  0  0
 25 34  1  0  0  0  0
 26100  1  0  0  0  0
 26101  1  0  0  0  0
 26102  1  0  0  0  0
 27 35  1  1  0  0  0
 27 36  1  0  0  0  0
 27103  1  0  0  0  0
 28 37  1  0  0  0  0
 28 38  1  0  0  0  0
 28 35  1  1  0  0  0
 29 23  1  0  0  0  0
 29 39  1  0  0  0  0
 29 40  1  1  0  0  0
 29104  1  0  0  0  0
 30 41  1  0  0  0  0
 31 34  1  0  0  0  0
 31105  1  0  0  0  0
 31106  1  0  0  0  0
 32107  1  0  0  0  0
 32108  1  0  0  0  0
 32109  1  0  0  0  0
 34 42  1  0  0  0  0
 34110  1  1  0  0  0
 35 43  1  1  0  0  0
 35 44  1  0  0  0  0
 36111  1  0  0  0  0
 36112  1  0  0  0  0
 36113  1  0  0  0  0
 37 45  1  0  0  0  0
 38114  1  0  0  0  0
 38115  1  0  0  0  0
 38116  1  0  0  0  0
 39 46  1  0  0  0  0
 40 48  1  6  0  0  0
 40 47  1  0  0  0  0
 40117  1  0  0  0  0
 41118  1  0  0  0  0
 41119  1  0  0  0  0
 41120  1  0  0  0  0
 42121  1  0  0  0  0
 42122  1  0  0  0  0
 42123  1  0  0  0  0
 43124  1  0  0  0  0
 44 49  1  0  0  0  0
 44125  1  0  0  0  0
 44126  1  0  0  0  0
 45127  1  0  0  0  0
 45128  1  0  0  0  0
 45129  1  0  0  0  0
 46 50  1  0  0  0  0
 46 51  1  0  0  0  0
 46130  1  6  0  0  0
 47131  1  0  0  0  0
 48 50  1  0  0  0  0
 48 52  1  0  0  0  0
 48132  1  1  0  0  0
 49 53  1  0  0  0  0
 49 54  1  0  0  0  0
 50133  1  0  0  0  0
 50134  1  0  0  0  0
 51135  1  0  0  0  0
 51136  1  0  0  0  0
 51137  1  0  0  0  0
 52 55  1  0  0  0  0
 52 56  1  0  0  0  0
 53 57  1  0  0  0  0
 53138  1  0  0  0  0
 53139  1  0  0  0  0
 54140  1  0  0  0  0
 54141  1  0  0  0  0
 54142  1  0  0  0  0
 55143  1  0  0  0  0
 55144  1  0  0  0  0
 55145  1  0  0  0  0
 56146  1  0  0  0  0
 56147  1  0  0  0  0
 56148  1  0  0  0  0
 57 58  2  0  0  0  0
 57 59  1  0  0  0  0
 58 60  1  0  0  0  0
 58149  1  0  0  0  0
 59 61  2  0  0  0  0
 59150  1  0  0  0  0
 60 62  2  0  0  0  0
 60151  1  0  0  0  0
 61 62  1  0  0  0  0
 61152  1  0  0  0  0
 62 63  1  0  0  0  0
 63 64  1  0  0  0  0
 63 65  2  0  0  0  0
 64 66  2  0  0  0  0
 65 67  1  0  0  0  0
 65153  1  0  0  0  0
 66 67  1  0  0  0  0
 67 68  1  0  0  0  0
 68 69  1  0  0  0  0
 68154  1  0  0  0  0
 68155  1  0  0  0  0
 69 70  1  0  0  0  0
 69156  1  0  0  0  0
 69157  1  0  0  0  0
 70 71  2  0  0  0  0
 70 72  1  0  0  0  0
 72 73  1  0  0  0  0
 72158  1  0  0  0  0
 73159  1  0  0  0  0
M  END
>  <Molecule Name>
2337426

>  <MolRegNo>
2337426

>  <m>
=

>  <Value>
3560

>  <Unit>
nM

>  <Type>
IC50

>  <pValue>
5.45

>  <Ligand Efficiency>
0

>  <Binding Efficiency>
5.26

>  <Surface Efficiency>
0

>  <Assay Index>
977531

>  <Assay Category>


>  <Assay Organism>
Homo sapiens

>  <Target ID>
11307

>  <Target Name>
Histone deacetylase 6

>  <Target Organism>
Homo sapiens

>  <Target Description>
Target is a single protein chain

>  <Sequence Accession>
Q9UBN7

>  <Reference>
Bioorg. Med. Chem. 23 (24), 7543-7564 (2015)

>  <Pubmed ID>
26585275

>  <DOI>
10.1016/j.bmc.2015.10.045

$$$$
2337319
 OpenBabel03252423443D

162166  0  0  0  0  0  0  0  0999 V2000
    0.6991   -0.1661   -0.0737 O   0  0  0  0  0  0  0  0  0  0  0  0
    1.9179   -0.1075   -0.0855 C   0  0  0  0  0  0  0  0  0  0  0  0
    2.7145   -1.1877   -0.3412 O   0  0  0  0  0  0  0  0  0  0  0  0
    2.7403    1.1358    0.2355 C   0  0  2  0  0  0  0  0  0  0  0  0
    2.0264   -2.3851   -0.7696 C   0  0  2  0  0  0  0  0  0  0  0  0
    2.8815    1.2872    1.8494 C   0  0  2  0  0  0  0  0  0  0  0  0
    2.1585    2.2243   -0.6908 C   0  0  0  0  0  0  0  0  0  0  0  0
    2.8456   -3.6505   -0.2227 C   0  0  2  0  0  0  0  0  0  0  0  0
    1.9401   -2.3935   -2.3258 C   0  0  0  0  0  0  0  0  0  0  0  0
    2.1700    2.3924    2.4297 O   0  0  0  0  0  0  0  0  0  0  0  0
    4.4134    1.2402    2.4248 C   0  0  1  0  0  0  0  0  0  0  0  0
    2.2269   -4.8523   -0.7292 O   0  0  0  0  0  0  0  0  0  0  0  0
    2.8390   -3.7739    1.3817 C   0  0  2  0  0  0  0  0  0  0  0  0
    4.2606   -3.6393   -0.8413 C   0  0  0  0  0  0  0  0  0  0  0  0
    1.1449   -1.2343   -2.9155 C   0  0  0  0  0  0  0  0  0  0  0  0
    0.7911    2.4784    2.0689 C   0  0  2  0  0  0  0  0  0  0  0  0
    4.6253    1.1783    4.0742 C   0  0  2  0  0  0  0  0  0  0  0  0
    5.0998    0.0860    1.7023 C   0  0  0  0  0  0  0  0  0  0  0  0
    2.4141   -2.5754    2.0346 O   0  0  0  0  0  0  0  0  0  0  0  0
    4.1773   -4.2326    2.0061 C   0  0  1  0  0  0  0  0  0  0  0  0
    0.1857    3.6970    2.3763 O   0  0  0  0  0  0  0  0  0  0  0  0
   -0.1103    1.3149    2.3860 C   0  0  0  0  0  0  0  0  0  0  0  0
    5.5148    2.2196    4.5925 O   0  0  0  0  0  0  0  0  0  0  0  0
    5.3001   -0.1925    4.7559 C   0  0  1  0  0  0  0  0  0  0  0  0
    4.3742   -3.8432    3.4753 C   0  0  0  0  0  0  0  0  0  0  0  0
    4.4411   -5.7318    1.8886 C   0  0  0  0  0  0  0  0  0  0  0  0
   -0.3323    3.8784    3.6816 C   0  0  2  0  0  0  0  0  0  0  0  0
   -0.5721    1.2389    3.8269 C   0  0  2  0  0  0  0  0  0  0  0  0
    5.2104    3.6006    4.5361 C   0  0  2  0  0  0  0  0  0  0  0  0
    5.0147   -0.1157    6.2025 O   0  0  0  0  0  0  0  0  0  0  0  0
    4.6128   -1.5084    4.2844 C   0  0  0  0  0  0  0  0  0  0  0  0
    6.8408   -0.1158    4.6478 C   0  0  0  0  0  0  0  0  0  0  0  0
    3.6986   -4.3721    4.3638 O   0  0  0  0  0  0  0  0  0  0  0  0
    5.4188   -2.7608    3.8456 C   0  0  2  0  0  0  0  0  0  0  0  0
   -1.1690    2.6472    4.3019 C   0  0  1  0  0  0  0  0  0  0  0  0
   -1.0842    5.2055    3.4397 C   0  0  0  0  0  0  0  0  0  0  0  0
    0.5406    1.0246    4.7399 O   0  0  0  0  0  0  0  0  0  0  0  0
   -1.4936    0.0048    3.8830 C   0  0  0  0  0  0  0  0  0  0  0  0
    6.3153    4.3895    5.0662 O   0  0  0  0  0  0  0  0  0  0  0  0
    3.9008    4.1814    5.1171 C   0  0  2  0  0  0  0  0  0  0  0  0
    5.6122   -1.1140    7.0401 C   0  0  0  0  0  0  0  0  0  0  0  0
    6.5097   -2.6228    2.7762 C   0  0  0  0  0  0  0  0  0  0  0  0
   -0.8937    2.7097    5.7210 O   0  0  0  0  0  0  0  0  0  0  0  0
   -2.7090    2.9290    4.1545 C   0  0  0  0  0  0  0  0  0  0  0  0
    1.2449   -0.2005    4.8088 C   0  0  0  0  0  0  0  0  0  0  0  0
    6.3827    4.5836    6.4899 C   0  0  1  0  0  0  0  0  0  0  0  0
    3.8078    5.5647    4.6515 O   0  0  0  0  0  0  0  0  0  0  0  0
    3.8594    4.2216    6.6801 C   0  0  2  0  0  0  0  0  0  0  0  0
   -3.8174    2.2244    4.8692 N   0  0  0  0  0  0  0  0  0  0  0  0
    5.0718    5.0624    7.1204 C   0  0  0  0  0  0  0  0  0  0  0  0
    6.9991    3.4016    7.2254 C   0  0  0  0  0  0  0  0  0  0  0  0
    3.7651    2.8872    7.3170 N   0  0  0  0  0  0  0  0  0  0  0  0
   -3.7667    2.2174    6.3654 C   0  0  0  0  0  0  0  0  0  0  0  0
   -5.0835    2.8401    4.4196 C   0  0  0  0  0  0  0  0  0  0  0  0
    2.4745    2.2578    7.0401 C   0  0  0  0  0  0  0  0  0  0  0  0
    3.9912    2.8346    8.7620 C   0  0  0  0  0  0  0  0  0  0  0  0
   -3.5634    3.5437    7.0859 C   0  0  0  0  0  0  0  0  0  0  0  0
   -4.4986    4.5830    7.0585 C   0  0  0  0  0  0  0  0  0  0  0  0
   -2.3413    3.7900    7.7145 C   0  0  0  0  0  0  0  0  0  0  0  0
   -4.0913    5.8964    7.3164 C   0  0  0  0  0  0  0  0  0  0  0  0
   -1.9184    5.0919    7.9435 C   0  0  0  0  0  0  0  0  0  0  0  0
   -2.7584    6.1630    7.6426 C   0  0  0  0  0  0  0  0  0  0  0  0
   -2.2402    7.5134    7.6055 C   0  0  0  0  0  0  0  0  0  0  0  0
   -2.9839    8.6391    7.3635 N   0  0  0  0  0  0  0  0  0  0  0  0
   -0.9250    7.8750    7.7943 C   0  0  0  0  0  0  0  0  0  0  0  0
   -2.1861    9.6936    7.4839 N   0  0  0  0  0  0  0  0  0  0  0  0
   -0.9686    9.2379    7.8176 N   0  0  0  0  0  0  0  0  0  0  0  0
   -0.0322   10.0968    8.5141 C   0  0  0  0  0  0  0  0  0  0  0  0
   -0.5496   10.4860    9.9051 C   0  0  0  0  0  0  0  0  0  0  0  0
   -0.9231    9.2976   10.7984 C   0  0  0  0  0  0  0  0  0  0  0  0
    0.2703    8.3972   11.0703 C   0  0  0  0  0  0  0  0  0  0  0  0
    1.4236    8.7890   11.0616 O   0  0  0  0  0  0  0  0  0  0  0  0
   -0.0513    7.0986   11.4064 N   0  0  0  0  0  0  0  0  0  0  0  0
    1.0638    6.2297   11.5389 O   0  0  0  0  0  0  0  0  0  0  0  0
    3.7271    0.9827   -0.1940 H   0  0  0  0  0  0  0  0  0  0  0  0
    1.0301   -2.4611   -0.3701 H   0  0  0  0  0  0  0  0  0  0  0  0
    2.4391    0.3852    2.2765 H   0  0  0  0  0  0  0  0  0  0  0  0
    1.0653    2.1842   -0.7900 H   0  0  0  0  0  0  0  0  0  0  0  0
    2.4886    2.0280   -1.7206 H   0  0  0  0  0  0  0  0  0  0  0  0
    2.4734    3.2333   -0.4187 H   0  0  0  0  0  0  0  0  0  0  0  0
    1.4859   -3.3317   -2.6677 H   0  0  0  0  0  0  0  0  0  0  0  0
    2.9355   -2.3255   -2.7766 H   0  0  0  0  0  0  0  0  0  0  0  0
    4.8876    2.1702    2.0946 H   0  0  0  0  0  0  0  0  0  0  0  0
    1.3138   -4.8954   -0.3896 H   0  0  0  0  0  0  0  0  0  0  0  0
    2.0771   -4.5135    1.6592 H   0  0  0  0  0  0  0  0  0  0  0  0
    4.2265   -3.7136   -1.9324 H   0  0  0  0  0  0  0  0  0  0  0  0
    4.8485   -4.5143   -0.5547 H   0  0  0  0  0  0  0  0  0  0  0  0
    4.8142   -2.7336   -0.5741 H   0  0  0  0  0  0  0  0  0  0  0  0
    0.1517   -1.1560   -2.4656 H   0  0  0  0  0  0  0  0  0  0  0  0
    1.0163   -1.3774   -3.9935 H   0  0  0  0  0  0  0  0  0  0  0  0
    1.6742   -0.2860   -2.7820 H   0  0  0  0  0  0  0  0  0  0  0  0
    0.7640    2.5523    1.0026 H   0  0  0  0  0  0  0  0  0  0  0  0
    3.6631    1.3482    4.5550 H   0  0  0  0  0  0  0  0  0  0  0  0
    4.5062   -0.8268    1.7768 H   0  0  0  0  0  0  0  0  0  0  0  0
    6.1038   -0.0798    2.0607 H   0  0  0  0  0  0  0  0  0  0  0  0
    5.2272    0.2471    0.6354 H   0  0  0  0  0  0  0  0  0  0  0  0
    2.4597   -1.8379    1.4133 H   0  0  0  0  0  0  0  0  0  0  0  0
    4.9613   -3.7454    1.4453 H   0  0  0  0  0  0  0  0  0  0  0  0
    0.3764    0.3771    2.1284 H   0  0  0  0  0  0  0  0  0  0  0  0
   -1.0017    1.4117    1.7493 H   0  0  0  0  0  0  0  0  0  0  0  0
    3.7892   -6.3094    2.5510 H   0  0  0  0  0  0  0  0  0  0  0  0
    5.4763   -5.9439    2.1834 H   0  0  0  0  0  0  0  0  0  0  0  0
    4.3028   -6.0989    0.8697 H   0  0  0  0  0  0  0  0  0  0  0  0
    0.5085    4.1023    4.3486 H   0  0  0  0  0  0  0  0  0  0  0  0
    5.2299    3.8567    3.4717 H   0  0  0  0  0  0  0  0  0  0  0  0
    3.8531   -1.2805    3.5433 H   0  0  0  0  0  0  0  0  0  0  0  0
    3.9732   -1.8580    5.1115 H   0  0  0  0  0  0  0  0  0  0  0  0
    7.2518    0.6207    5.3495 H   0  0  0  0  0  0  0  0  0  0  0  0
    7.1942    0.1709    3.6587 H   0  0  0  0  0  0  0  0  0  0  0  0
    7.3207   -1.0586    4.9269 H   0  0  0  0  0  0  0  0  0  0  0  0
    5.9367   -3.1588    4.7287 H   0  0  0  0  0  0  0  0  0  0  0  0
   -1.8236    5.0894    2.6314 H   0  0  0  0  0  0  0  0  0  0  0  0
   -0.3859    5.9624    3.0538 H   0  0  0  0  0  0  0  0  0  0  0  0
   -1.5682    5.6221    4.3227 H   0  0  0  0  0  0  0  0  0  0  0  0
   -0.9894   -0.8563    3.4111 H   0  0  0  0  0  0  0  0  0  0  0  0
   -2.4096    0.1305    3.3027 H   0  0  0  0  0  0  0  0  0  0  0  0
   -1.7113   -0.3119    4.9043 H   0  0  0  0  0  0  0  0  0  0  0  0
    3.0305    3.6703    4.7031 H   0  0  0  0  0  0  0  0  0  0  0  0
    5.2892   -0.9403    8.0707 H   0  0  0  0  0  0  0  0  0  0  0  0
    6.7050   -1.0626    7.0315 H   0  0  0  0  0  0  0  0  0  0  0  0
    5.2959   -2.1253    6.7691 H   0  0  0  0  0  0  0  0  0  0  0  0
    6.1366   -2.2484    1.8222 H   0  0  0  0  0  0  0  0  0  0  0  0
    6.9602   -3.6006    2.5686 H   0  0  0  0  0  0  0  0  0  0  0  0
    7.3353   -1.9748    3.0600 H   0  0  0  0  0  0  0  0  0  0  0  0
   -0.4469    1.8669    5.9354 H   0  0  0  0  0  0  0  0  0  0  0  0
   -2.9221    2.8661    3.0790 H   0  0  0  0  0  0  0  0  0  0  0  0
   -2.8570    3.9727    4.4426 H   0  0  0  0  0  0  0  0  0  0  0  0
    1.4777   -0.3893    5.8612 H   0  0  0  0  0  0  0  0  0  0  0  0
    2.1916   -0.0883    4.2974 H   0  0  0  0  0  0  0  0  0  0  0  0
    0.7361   -1.0735    4.4092 H   0  0  0  0  0  0  0  0  0  0  0  0
    7.0951    5.4098    6.6218 H   0  0  0  0  0  0  0  0  0  0  0  0
    4.7294    5.8882    4.5708 H   0  0  0  0  0  0  0  0  0  0  0  0
    2.9747    4.8042    6.9783 H   0  0  0  0  0  0  0  0  0  0  0  0
    4.8985    6.1009    6.8010 H   0  0  0  0  0  0  0  0  0  0  0  0
    5.1510    5.1410    8.2116 H   0  0  0  0  0  0  0  0  0  0  0  0
    6.3789    2.5061    7.1657 H   0  0  0  0  0  0  0  0  0  0  0  0
    7.1495    3.6495    8.2840 H   0  0  0  0  0  0  0  0  0  0  0  0
    7.9701    3.1426    6.7970 H   0  0  0  0  0  0  0  0  0  0  0  0
   -2.9781    1.5149    6.6622 H   0  0  0  0  0  0  0  0  0  0  0  0
   -4.6866    1.7605    6.7559 H   0  0  0  0  0  0  0  0  0  0  0  0
   -5.2192    2.7063    3.3416 H   0  0  0  0  0  0  0  0  0  0  0  0
   -5.1149    3.9213    4.6005 H   0  0  0  0  0  0  0  0  0  0  0  0
   -5.9502    2.3861    4.9109 H   0  0  0  0  0  0  0  0  0  0  0  0
    2.4697    1.2237    7.4020 H   0  0  0  0  0  0  0  0  0  0  0  0
    2.2852    2.2076    5.9714 H   0  0  0  0  0  0  0  0  0  0  0  0
    1.6410    2.7940    7.5054 H   0  0  0  0  0  0  0  0  0  0  0  0
    3.9184    1.7961    9.1116 H   0  0  0  0  0  0  0  0  0  0  0  0
    3.2705    3.4357    9.3256 H   0  0  0  0  0  0  0  0  0  0  0  0
    4.9986    3.1474    9.0439 H   0  0  0  0  0  0  0  0  0  0  0  0
   -5.5217    4.4029    6.7431 H   0  0  0  0  0  0  0  0  0  0  0  0
   -1.6331    2.9839    7.8858 H   0  0  0  0  0  0  0  0  0  0  0  0
   -4.8009    6.7097    7.1771 H   0  0  0  0  0  0  0  0  0  0  0  0
   -0.8958    5.2363    8.2811 H   0  0  0  0  0  0  0  0  0  0  0  0
   -0.0220    7.3217    8.0031 H   0  0  0  0  0  0  0  0  0  0  0  0
    0.1318   10.9765    7.8856 H   0  0  0  0  0  0  0  0  0  0  0  0
    0.9210    9.5608    8.5737 H   0  0  0  0  0  0  0  0  0  0  0  0
   -1.4404   11.1117    9.7885 H   0  0  0  0  0  0  0  0  0  0  0  0
    0.2091   11.0994   10.3974 H   0  0  0  0  0  0  0  0  0  0  0  0
   -1.7317    8.7056   10.3627 H   0  0  0  0  0  0  0  0  0  0  0  0
   -1.2970    9.6685   11.7643 H   0  0  0  0  0  0  0  0  0  0  0  0
   -0.9121    6.6655   11.0823 H   0  0  0  0  0  0  0  0  0  0  0  0
    1.8191    6.8565   11.5230 H   0  0  0  0  0  0  0  0  0  0  0  0
  1  2  2  0  0  0  0
  2  3  1  0  0  0  0
  2  4  1  0  0  0  0
  3  5  1  0  0  0  0
  4  6  1  1  0  0  0
  4  7  1  0  0  0  0
  4 75  1  0  0  0  0
  5  8  1  1  0  0  0
  5  9  1  0  0  0  0
  5 76  1  0  0  0  0
  6 10  1  0  0  0  0
  6 11  1  1  0  0  0
  6 77  1  0  0  0  0
  7 78  1  0  0  0  0
  7 79  1  0  0  0  0
  7 80  1  0  0  0  0
  8 12  1  0  0  0  0
  8 13  1  1  0  0  0
  8 14  1  0  0  0  0
  9 15  1  0  0  0  0
  9 81  1  0  0  0  0
  9 82  1  0  0  0  0
 11 17  1  1  0  0  0
 11 18  1  0  0  0  0
 11 83  1  0  0  0  0
 12 84  1  0  0  0  0
 13 20  1  1  0  0  0
 13 19  1  0  0  0  0
 13 85  1  0  0  0  0
 14 86  1  0  0  0  0
 14 87  1  0  0  0  0
 14 88  1  0  0  0  0
 15 89  1  0  0  0  0
 15 90  1  0  0  0  0
 15 91  1  0  0  0  0
 16 10  1  0  0  0  0
 16 21  1  0  0  0  0
 16 22  1  0  0  0  0
 16 92  1  6  0  0  0
 17 23  1  0  0  0  0
 17 24  1  1  0  0  0
 17 93  1  0  0  0  0
 18 94  1  0  0  0  0
 18 95  1  0  0  0  0
 18 96  1  0  0  0  0
 19 97  1  0  0  0  0
 20 25  1  0  0  0  0
 20 26  1  0  0  0  0
 20 98  1  6  0  0  0
 21 27  1  0  0  0  0
 22 28  1  0  0  0  0
 22 99  1  0  0  0  0
 22100  1  0  0  0  0
 24 30  1  1  0  0  0
 24 31  1  0  0  0  0
 24 32  1  0  0  0  0
 25 33  2  0  0  0  0
 25 34  1  0  0  0  0
 26101  1  0  0  0  0
 26102  1  0  0  0  0
 26103  1  0  0  0  0
 27 35  1  1  0  0  0
 27 36  1  0  0  0  0
 27104  1  0  0  0  0
 28 37  1  0  0  0  0
 28 38  1  0  0  0  0
 28 35  1  1  0  0  0
 29 23  1  0  0  0  0
 29 39  1  0  0  0  0
 29 40  1  1  0  0  0
 29105  1  0  0  0  0
 30 41  1  0  0  0  0
 31 34  1  0  0  0  0
 31106  1  0  0  0  0
 31107  1  0  0  0  0
 32108  1  0  0  0  0
 32109  1  0  0  0  0
 32110  1  0  0  0  0
 34 42  1  0  0  0  0
 34111  1  1  0  0  0
 35 43  1  1  0  0  0
 35 44  1  0  0  0  0
 36112  1  0  0  0  0
 36113  1  0  0  0  0
 36114  1  0  0  0  0
 37 45  1  0  0  0  0
 38115  1  0  0  0  0
 38116  1  0  0  0  0
 38117  1  0  0  0  0
 39 46  1  0  0  0  0
 40 48  1  1  0  0  0
 40 47  1  0  0  0  0
 40118  1  0  0  0  0
 41119  1  0  0  0  0
 41120  1  0  0  0  0
 41121  1  0  0  0  0
 42122  1  0  0  0  0
 42123  1  0  0  0  0
 42124  1  0  0  0  0
 43125  1  0  0  0  0
 44 49  1  0  0  0  0
 44126  1  0  0  0  0
 44127  1  0  0  0  0
 45128  1  0  0  0  0
 45129  1  0  0  0  0
 45130  1  0  0  0  0
 46 50  1  0  0  0  0
 46 51  1  0  0  0  0
 46131  1  1  0  0  0
 47132  1  0  0  0  0
 48 50  1  0  0  0  0
 48 52  1  0  0  0  0
 48133  1  1  0  0  0
 49 53  1  0  0  0  0
 49 54  1  0  0  0  0
 50134  1  0  0  0  0
 50135  1  0  0  0  0
 51136  1  0  0  0  0
 51137  1  0  0  0  0
 51138  1  0  0  0  0
 52 55  1  0  0  0  0
 52 56  1  0  0  0  0
 53 57  1  0  0  0  0
 53139  1  0  0  0  0
 53140  1  0  0  0  0
 54141  1  0  0  0  0
 54142  1  0  0  0  0
 54143  1  0  0  0  0
 55144  1  0  0  0  0
 55145  1  0  0  0  0
 55146  1  0  0  0  0
 56147  1  0  0  0  0
 56148  1  0  0  0  0
 56149  1  0  0  0  0
 57 58  2  0  0  0  0
 57 59  1  0  0  0  0
 58 60  1  0  0  0  0
 58150  1  0  0  0  0
 59 61  2  0  0  0  0
 59151  1  0  0  0  0
 60 62  2  0  0  0  0
 60152  1  0  0  0  0
 61 62  1  0  0  0  0
 61153  1  0  0  0  0
 62 63  1  0  0  0  0
 63 64  1  0  0  0  0
 63 65  2  0  0  0  0
 64 66  2  0  0  0  0
 65 67  1  0  0  0  0
 65154  1  0  0  0  0
 66 67  1  0  0  0  0
 67 68  1  0  0  0  0
 68 69  1  0  0  0  0
 68155  1  0  0  0  0
 68156  1  0  0  0  0
 69 70  1  0  0  0  0
 69157  1  0  0  0  0
 69158  1  0  0  0  0
 70 71  1  0  0  0  0
 70159  1  0  0  0  0
 70160  1  0  0  0  0
 71 72  2  0  0  0  0
 71 73  1  0  0  0  0
 73 74  1  0  0  0  0
 73161  1  0  0  0  0
 74162  1  0  0  0  0
M  END
>  <Molecule Name>
2337319

>  <MolRegNo>
2337319

>  <m>
=

>  <Value>
361

>  <Unit>
nM

>  <Type>
IC50

>  <pValue>
6.44

>  <Ligand Efficiency>
0

>  <Binding Efficiency>
6.14

>  <Surface Efficiency>
0

>  <Assay Index>
977531

>  <Assay Category>


>  <Assay Organism>
Homo sapiens

>  <Target ID>
11307

>  <Target Name>
Histone deacetylase 6

>  <Target Organism>
Homo sapiens

>  <Target Description>
Target is a single protein chain

>  <Sequence Accession>
Q9UBN7

>  <Reference>
Bioorg. Med. Chem. 23 (24), 7543-7564 (2015)

>  <Pubmed ID>
26585275

>  <DOI>
10.1016/j.bmc.2015.10.045

$$$$
2337399
 OpenBabel03252423443D

165169  0  0  0  0  0  0  0  0999 V2000
    0.5030   -0.2106   -0.0788 O   0  0  0  0  0  0  0  0  0  0  0  0
    1.7246   -0.1640   -0.0699 C   0  0  0  0  0  0  0  0  0  0  0  0
    2.5271   -1.2336   -0.3334 O   0  0  0  0  0  0  0  0  0  0  0  0
    2.5390    1.0809    0.2541 C   0  0  2  0  0  0  0  0  0  0  0  0
    1.8531   -2.4513   -0.7641 C   0  0  2  0  0  0  0  0  0  0  0  0
    2.6677    1.2107    1.8588 C   0  0  2  0  0  0  0  0  0  0  0  0
    1.9707    2.1767   -0.6693 C   0  0  0  0  0  0  0  0  0  0  0  0
    2.6691   -3.6920   -0.2218 C   0  0  2  0  0  0  0  0  0  0  0  0
    1.7249   -2.4461   -2.3100 C   0  0  0  0  0  0  0  0  0  0  0  0
    2.0032    2.3410    2.4527 O   0  0  0  0  0  0  0  0  0  0  0  0
    4.1785    1.1512    2.3883 C   0  0  1  0  0  0  0  0  0  0  0  0
    2.0526   -4.8993   -0.7106 O   0  0  0  0  0  0  0  0  0  0  0  0
    2.6823   -3.7992    1.3803 C   0  0  2  0  0  0  0  0  0  0  0  0
    4.0783   -3.6660   -0.8519 C   0  0  0  0  0  0  0  0  0  0  0  0
    0.9065   -1.3010   -2.8937 C   0  0  0  0  0  0  0  0  0  0  0  0
    0.6313    2.5022    2.0960 C   0  0  2  0  0  0  0  0  0  0  0  0
    4.4890    1.1748    3.9878 C   0  0  2  0  0  0  0  0  0  0  0  0
    4.8954    0.0082    1.6759 C   0  0  0  0  0  0  0  0  0  0  0  0
    2.2458   -2.5873    2.0000 O   0  0  0  0  0  0  0  0  0  0  0  0
    4.0298   -4.2435    1.9986 C   0  0  1  0  0  0  0  0  0  0  0  0
    0.0686    3.7371    2.4408 O   0  0  0  0  0  0  0  0  0  0  0  0
   -0.2894    1.3489    2.3836 C   0  0  0  0  0  0  0  0  0  0  0  0
    5.5248    2.1720    4.2654 O   0  0  0  0  0  0  0  0  0  0  0  0
    5.1081   -0.1607    4.7488 C   0  0  1  0  0  0  0  0  0  0  0  0
    4.2178   -3.8522    3.4667 C   0  0  0  0  0  0  0  0  0  0  0  0
    4.2804   -5.7464    1.8779 C   0  0  0  0  0  0  0  0  0  0  0  0
   -0.5521    3.8922    3.7064 C   0  0  2  0  0  0  0  0  0  0  0  0
   -0.7456    1.2596    3.8257 C   0  0  2  0  0  0  0  0  0  0  0  0
    5.1674    3.5368    4.3763 C   0  0  2  0  0  0  0  0  0  0  0  0
    5.0087   -0.0030    6.2087 O   0  0  0  0  0  0  0  0  0  0  0  0
    4.4699   -1.5347    4.3568 C   0  0  0  0  0  0  0  0  0  0  0  0
    6.6549   -0.1646    4.6618 C   0  0  0  0  0  0  0  0  0  0  0  0
    3.5170   -4.3669    4.3499 O   0  0  0  0  0  0  0  0  0  0  0  0
    5.2725   -2.7763    3.8541 C   0  0  2  0  0  0  0  0  0  0  0  0
   -1.3476    2.6583    4.2998 C   0  0  1  0  0  0  0  0  0  0  0  0
   -1.3508    5.1786    3.4686 C   0  0  0  0  0  0  0  0  0  0  0  0
    0.3831    1.0556    4.7243 O   0  0  0  0  0  0  0  0  0  0  0  0
   -1.6491    0.0144    3.8921 C   0  0  0  0  0  0  0  0  0  0  0  0
    5.1311    4.1983    3.1073 O   0  0  0  0  0  0  0  0  0  0  0  0
    6.1023    4.3485    5.3352 C   0  0  2  0  0  0  0  0  0  0  0  0
    3.7645   -0.0040    6.8708 C   0  0  0  0  0  0  0  0  0  0  0  0
    6.3718   -2.6429    2.7946 C   0  0  0  0  0  0  0  0  0  0  0  0
   -1.0204    2.7168    5.7595 O   0  0  0  0  0  0  0  0  0  0  0  0
   -2.8972    2.8255    4.4417 C   0  0  0  0  0  0  0  0  0  0  0  0
    1.0508   -0.1879    4.7953 C   0  0  0  0  0  0  0  0  0  0  0  0
    6.3842    4.4051    2.4850 C   0  0  1  0  0  0  0  0  0  0  0  0
    5.5386    5.6738    5.5249 O   0  0  0  0  0  0  0  0  0  0  0  0
    7.5567    4.5193    4.7798 C   0  0  2  0  0  0  0  0  0  0  0  0
   -3.9474    3.0589    3.4135 N   0  0  0  0  0  0  0  0  0  0  0  0
    7.4067    5.1401    3.3740 C   0  0  0  0  0  0  0  0  0  0  0  0
    6.9844    3.1604    1.8384 C   0  0  0  0  0  0  0  0  0  0  0  0
    8.3734    3.2776    4.8793 N   0  0  0  0  0  0  0  0  0  0  0  0
   -4.1356    1.8756    2.5571 C   0  0  0  0  0  0  0  0  0  0  0  0
   -5.1859    3.3333    4.1925 C   0  0  0  0  0  0  0  0  0  0  0  0
    8.7564    3.0064    6.2735 C   0  0  0  0  0  0  0  0  0  0  0  0
    9.5844    3.2342    4.0604 C   0  0  0  0  0  0  0  0  0  0  0  0
   -5.3906    1.8014    1.7129 C   0  0  0  0  0  0  0  0  0  0  0  0
   -5.9575    2.9055    1.0630 C   0  0  0  0  0  0  0  0  0  0  0  0
   -6.0438    0.5653    1.6373 C   0  0  0  0  0  0  0  0  0  0  0  0
   -7.2627    2.8288    0.5559 C   0  0  0  0  0  0  0  0  0  0  0  0
   -7.3224    0.4831    1.1085 C   0  0  0  0  0  0  0  0  0  0  0  0
   -7.9825    1.6347    0.6602 C   0  0  0  0  0  0  0  0  0  0  0  0
   -9.4099    1.5720    0.4226 C   0  0  0  0  0  0  0  0  0  0  0  0
  -10.1569    2.4150   -0.3545 N   0  0  0  0  0  0  0  0  0  0  0  0
  -10.2447    0.6490    1.0142 C   0  0  0  0  0  0  0  0  0  0  0  0
  -11.4180    1.9838   -0.3324 N   0  0  0  0  0  0  0  0  0  0  0  0
  -11.4597    0.9029    0.4653 N   0  0  0  0  0  0  0  0  0  0  0  0
  -12.6062    0.0239    0.5040 C   0  0  0  0  0  0  0  0  0  0  0  0
  -13.2769   -0.0889    1.8724 C   0  0  0  0  0  0  0  0  0  0  0  0
  -13.9930    1.1946    2.2860 C   0  0  0  0  0  0  0  0  0  0  0  0
  -14.7257    1.0120    3.6122 C   0  0  0  0  0  0  0  0  0  0  0  0
  -15.4241    2.2838    4.0473 C   0  0  0  0  0  0  0  0  0  0  0  0
  -15.3740    3.3492    3.4368 O   0  0  0  0  0  0  0  0  0  0  0  0
  -16.1224    2.1510    5.2270 N   0  0  0  0  0  0  0  0  0  0  0  0
  -16.8746    3.2842    5.6024 O   0  0  0  0  0  0  0  0  0  0  0  0
    3.5283    0.9394   -0.1748 H   0  0  0  0  0  0  0  0  0  0  0  0
    0.8434   -2.5125   -0.3370 H   0  0  0  0  0  0  0  0  0  0  0  0
    2.2177    0.3149    2.2908 H   0  0  0  0  0  0  0  0  0  0  0  0
    0.8769    2.1606   -0.7600 H   0  0  0  0  0  0  0  0  0  0  0  0
    2.2943    1.9822   -1.7010 H   0  0  0  0  0  0  0  0  0  0  0  0
    2.3090    3.1783   -0.3961 H   0  0  0  0  0  0  0  0  0  0  0  0
    1.2779   -3.3893   -2.6417 H   0  0  0  0  0  0  0  0  0  0  0  0
    2.7145   -2.3660   -2.7707 H   0  0  0  0  0  0  0  0  0  0  0  0
    4.6004    2.0756    2.0027 H   0  0  0  0  0  0  0  0  0  0  0  0
    1.1430   -4.9387   -0.3612 H   0  0  0  0  0  0  0  0  0  0  0  0
    1.9287   -4.5395    1.6759 H   0  0  0  0  0  0  0  0  0  0  0  0
    4.0346   -3.7396   -1.9424 H   0  0  0  0  0  0  0  0  0  0  0  0
    4.6773   -4.5349   -0.5699 H   0  0  0  0  0  0  0  0  0  0  0  0
    4.6269   -2.7556   -0.5890 H   0  0  0  0  0  0  0  0  0  0  0  0
   -0.0944   -1.2584   -2.4561 H   0  0  0  0  0  0  0  0  0  0  0  0
    0.7962   -1.4379   -3.9747 H   0  0  0  0  0  0  0  0  0  0  0  0
    1.4045   -0.3382   -2.7456 H   0  0  0  0  0  0  0  0  0  0  0  0
    0.6136    2.6136    1.0318 H   0  0  0  0  0  0  0  0  0  0  0  0
    3.5873    1.4937    4.5178 H   0  0  0  0  0  0  0  0  0  0  0  0
    4.3706   -0.9362    1.8485 H   0  0  0  0  0  0  0  0  0  0  0  0
    5.9225   -0.0715    2.0195 H   0  0  0  0  0  0  0  0  0  0  0  0
    5.0010    0.1214    0.6081 H   0  0  0  0  0  0  0  0  0  0  0  0
    2.5425   -1.8501    1.4478 H   0  0  0  0  0  0  0  0  0  0  0  0
    4.8160   -3.7589    1.4376 H   0  0  0  0  0  0  0  0  0  0  0  0
    0.1806    0.4064    2.1150 H   0  0  0  0  0  0  0  0  0  0  0  0
   -1.1663    1.4663    1.7375 H   0  0  0  0  0  0  0  0  0  0  0  0
    3.6096   -6.3164    2.5276 H   0  0  0  0  0  0  0  0  0  0  0  0
    5.3085   -5.9758    2.1824 H   0  0  0  0  0  0  0  0  0  0  0  0
    4.1446   -6.1092    0.8555 H   0  0  0  0  0  0  0  0  0  0  0  0
    0.2542    4.1407    4.4089 H   0  0  0  0  0  0  0  0  0  0  0  0
    4.1533    3.6073    4.8043 H   0  0  0  0  0  0  0  0  0  0  0  0
    3.6194   -1.3550    3.7009 H   0  0  0  0  0  0  0  0  0  0  0  0
    3.9853   -1.9383    5.2531 H   0  0  0  0  0  0  0  0  0  0  0  0
    7.0943    0.5926    5.3238 H   0  0  0  0  0  0  0  0  0  0  0  0
    7.0395    0.0368    3.6639 H   0  0  0  0  0  0  0  0  0  0  0  0
    7.0719   -1.1064    5.0345 H   0  0  0  0  0  0  0  0  0  0  0  0
    5.7883   -3.1988    4.7291 H   0  0  0  0  0  0  0  0  0  0  0  0
   -2.0698    5.0516    2.6472 H   0  0  0  0  0  0  0  0  0  0  0  0
   -0.6685    5.9702    3.1179 H   0  0  0  0  0  0  0  0  0  0  0  0
   -1.8599    5.5527    4.3565 H   0  0  0  0  0  0  0  0  0  0  0  0
   -1.1427   -0.8581    3.4564 H   0  0  0  0  0  0  0  0  0  0  0  0
   -2.5275    0.0880    3.2658 H   0  0  0  0  0  0  0  0  0  0  0  0
   -1.9179   -0.2610    4.9128 H   0  0  0  0  0  0  0  0  0  0  0  0
    6.1213    3.8958    6.3298 H   0  0  0  0  0  0  0  0  0  0  0  0
    3.9549    0.1503    7.9375 H   0  0  0  0  0  0  0  0  0  0  0  0
    3.2494   -0.9667    6.7949 H   0  0  0  0  0  0  0  0  0  0  0  0
    3.1226    0.8065    6.5275 H   0  0  0  0  0  0  0  0  0  0  0  0
    6.0183   -2.2645    1.8346 H   0  0  0  0  0  0  0  0  0  0  0  0
    6.8109   -3.6267    2.5869 H   0  0  0  0  0  0  0  0  0  0  0  0
    7.2069   -2.0130    3.0933 H   0  0  0  0  0  0  0  0  0  0  0  0
   -0.3862    1.9848    5.9063 H   0  0  0  0  0  0  0  0  0  0  0  0
   -2.9895    3.6928    5.1152 H   0  0  0  0  0  0  0  0  0  0  0  0
   -3.2276    1.9864    5.0735 H   0  0  0  0  0  0  0  0  0  0  0  0
    1.1573   -0.4450    5.8510 H   0  0  0  0  0  0  0  0  0  0  0  0
    2.0469   -0.0539    4.3907 H   0  0  0  0  0  0  0  0  0  0  0  0
    0.5894   -1.0285    4.2849 H   0  0  0  0  0  0  0  0  0  0  0  0
    6.1712    5.0935    1.6482 H   0  0  0  0  0  0  0  0  0  0  0  0
    5.0604    5.8851    4.6980 H   0  0  0  0  0  0  0  0  0  0  0  0
    8.0667    5.2949    5.3735 H   0  0  0  0  0  0  0  0  0  0  0  0
    7.0480    6.1705    3.5070 H   0  0  0  0  0  0  0  0  0  0  0  0
    8.3702    5.2516    2.8663 H   0  0  0  0  0  0  0  0  0  0  0  0
    7.2153    2.3873    2.5742 H   0  0  0  0  0  0  0  0  0  0  0  0
    7.8893    3.3959    1.2675 H   0  0  0  0  0  0  0  0  0  0  0  0
    6.2882    2.7271    1.1269 H   0  0  0  0  0  0  0  0  0  0  0  0
   -4.1950    1.0097    3.2245 H   0  0  0  0  0  0  0  0  0  0  0  0
   -3.2834    1.7632    1.8850 H   0  0  0  0  0  0  0  0  0  0  0  0
   -5.0575    4.2336    4.8047 H   0  0  0  0  0  0  0  0  0  0  0  0
   -5.4401    2.5005    4.8626 H   0  0  0  0  0  0  0  0  0  0  0  0
   -6.0576    3.5378    3.5686 H   0  0  0  0  0  0  0  0  0  0  0  0
    9.2851    2.0485    6.3448 H   0  0  0  0  0  0  0  0  0  0  0  0
    7.8890    2.9163    6.9311 H   0  0  0  0  0  0  0  0  0  0  0  0
    9.4160    3.7866    6.6735 H   0  0  0  0  0  0  0  0  0  0  0  0
   10.1016    2.2772    4.2089 H   0  0  0  0  0  0  0  0  0  0  0  0
   10.2851    4.0425    4.2910 H   0  0  0  0  0  0  0  0  0  0  0  0
    9.3649    3.2611    2.9923 H   0  0  0  0  0  0  0  0  0  0  0  0
   -5.4306    3.8581    1.0517 H   0  0  0  0  0  0  0  0  0  0  0  0
   -5.5973   -0.3314    2.0614 H   0  0  0  0  0  0  0  0  0  0  0  0
   -7.7320    3.7249    0.1545 H   0  0  0  0  0  0  0  0  0  0  0  0
   -7.8215   -0.4820    1.1146 H   0  0  0  0  0  0  0  0  0  0  0  0
  -10.0755   -0.1579    1.7103 H   0  0  0  0  0  0  0  0  0  0  0  0
  -12.2316   -0.9664    0.2099 H   0  0  0  0  0  0  0  0  0  0  0  0
  -13.3170    0.3455   -0.2635 H   0  0  0  0  0  0  0  0  0  0  0  0
  -12.5421   -0.3632    2.6396 H   0  0  0  0  0  0  0  0  0  0  0  0
  -14.0072   -0.9066    1.8286 H   0  0  0  0  0  0  0  0  0  0  0  0
  -14.7101    1.4850    1.5083 H   0  0  0  0  0  0  0  0  0  0  0  0
  -13.2710    2.0152    2.3749 H   0  0  0  0  0  0  0  0  0  0  0  0
  -14.0204    0.7248    4.4004 H   0  0  0  0  0  0  0  0  0  0  0  0
  -15.4814    0.2226    3.5215 H   0  0  0  0  0  0  0  0  0  0  0  0
  -16.4475    1.2540    5.5786 H   0  0  0  0  0  0  0  0  0  0  0  0
  -16.6382    3.9395    4.9070 H   0  0  0  0  0  0  0  0  0  0  0  0
  1  2  2  0  0  0  0
  2  3  1  0  0  0  0
  2  4  1  0  0  0  0
  3  5  1  0  0  0  0
  4  6  1  1  0  0  0
  4  7  1  0  0  0  0
  4 76  1  0  0  0  0
  5  8  1  1  0  0  0
  5  9  1  0  0  0  0
  5 77  1  0  0  0  0
  6 10  1  0  0  0  0
  6 11  1  1  0  0  0
  6 78  1  0  0  0  0
  7 79  1  0  0  0  0
  7 80  1  0  0  0  0
  7 81  1  0  0  0  0
  8 12  1  0  0  0  0
  8 13  1  1  0  0  0
  8 14  1  0  0  0  0
  9 15  1  0  0  0  0
  9 82  1  0  0  0  0
  9 83  1  0  0  0  0
 11 17  1  1  0  0  0
 11 18  1  0  0  0  0
 11 84  1  0  0  0  0
 12 85  1  0  0  0  0
 13 20  1  1  0  0  0
 13 19  1  0  0  0  0
 13 86  1  0  0  0  0
 14 87  1  0  0  0  0
 14 88  1  0  0  0  0
 14 89  1  0  0  0  0
 15 90  1  0  0  0  0
 15 91  1  0  0  0  0
 15 92  1  0  0  0  0
 16 10  1  0  0  0  0
 16 21  1  0  0  0  0
 16 22  1  0  0  0  0
 16 93  1  6  0  0  0
 17 23  1  0  0  0  0
 17 24  1  1  0  0  0
 17 94  1  0  0  0  0
 18 95  1  0  0  0  0
 18 96  1  0  0  0  0
 18 97  1  0  0  0  0
 19 98  1  0  0  0  0
 20 25  1  0  0  0  0
 20 26  1  0  0  0  0
 20 99  1  6  0  0  0
 21 27  1  0  0  0  0
 22 28  1  0  0  0  0
 22100  1  0  0  0  0
 22101  1  0  0  0  0
 24 30  1  1  0  0  0
 24 31  1  0  0  0  0
 24 32  1  0  0  0  0
 25 33  2  0  0  0  0
 25 34  1  0  0  0  0
 26102  1  0  0  0  0
 26103  1  0  0  0  0
 26104  1  0  0  0  0
 27 35  1  1  0  0  0
 27 36  1  0  0  0  0
 27105  1  0  0  0  0
 28 37  1  0  0  0  0
 28 38  1  0  0  0  0
 28 35  1  1  0  0  0
 29 23  1  0  0  0  0
 29 39  1  0  0  0  0
 29 40  1  1  0  0  0
 29106  1  0  0  0  0
 30 41  1  0  0  0  0
 31 34  1  0  0  0  0
 31107  1  0  0  0  0
 31108  1  0  0  0  0
 32109  1  0  0  0  0
 32110  1  0  0  0  0
 32111  1  0  0  0  0
 34 42  1  0  0  0  0
 34112  1  1  0  0  0
 35 43  1  1  0  0  0
 35 44  1  0  0  0  0
 36113  1  0  0  0  0
 36114  1  0  0  0  0
 36115  1  0  0  0  0
 37 45  1  0  0  0  0
 38116  1  0  0  0  0
 38117  1  0  0  0  0
 38118  1  0  0  0  0
 39 46  1  0  0  0  0
 40 48  1  6  0  0  0
 40 47  1  0  0  0  0
 40119  1  0  0  0  0
 41120  1  0  0  0  0
 41121  1  0  0  0  0
 41122  1  0  0  0  0
 42123  1  0  0  0  0
 42124  1  0  0  0  0
 42125  1  0  0  0  0
 43126  1  0  0  0  0
 44 49  1  0  0  0  0
 44127  1  0  0  0  0
 44128  1  0  0  0  0
 45129  1  0  0  0  0
 45130  1  0  0  0  0
 45131  1  0  0  0  0
 46 50  1  0  0  0  0
 46 51  1  0  0  0  0
 46132  1  6  0  0  0
 47133  1  0  0  0  0
 48 50  1  0  0  0  0
 48 52  1  0  0  0  0
 48134  1  1  0  0  0
 49 53  1  0  0  0  0
 49 54  1  0  0  0  0
 50135  1  0  0  0  0
 50136  1  0  0  0  0
 51137  1  0  0  0  0
 51138  1  0  0  0  0
 51139  1  0  0  0  0
 52 55  1  0  0  0  0
 52 56  1  0  0  0  0
 53 57  1  0  0  0  0
 53140  1  0  0  0  0
 53141  1  0  0  0  0
 54142  1  0  0  0  0
 54143  1  0  0  0  0
 54144  1  0  0  0  0
 55145  1  0  0  0  0
 55146  1  0  0  0  0
 55147  1  0  0  0  0
 56148  1  0  0  0  0
 56149  1  0  0  0  0
 56150  1  0  0  0  0
 57 58  2  0  0  0  0
 57 59  1  0  0  0  0
 58 60  1  0  0  0  0
 58151  1  0  0  0  0
 59 61  2  0  0  0  0
 59152  1  0  0  0  0
 60 62  2  0  0  0  0
 60153  1  0  0  0  0
 61 62  1  0  0  0  0
 61154  1  0  0  0  0
 62 63  1  0  0  0  0
 63 64  1  0  0  0  0
 63 65  2  0  0  0  0
 64 66  2  0  0  0  0
 65 67  1  0  0  0  0
 65155  1  0  0  0  0
 66 67  1  0  0  0  0
 67 68  1  0  0  0  0
 68 69  1  0  0  0  0
 68156  1  0  0  0  0
 68157  1  0  0  0  0
 69 70  1  0  0  0  0
 69158  1  0  0  0  0
 69159  1  0  0  0  0
 70 71  1  0  0  0  0
 70160  1  0  0  0  0
 70161  1  0  0  0  0
 71 72  1  0  0  0  0
 71162  1  0  0  0  0
 71163  1  0  0  0  0
 72 73  2  0  0  0  0
 72 74  1  0  0  0  0
 74 75  1  0  0  0  0
 74164  1  0  0  0  0
 75165  1  0  0  0  0
M  END
>  <Molecule Name>
2337399

>  <MolRegNo>
2337399

>  <m>
=

>  <Value>
269

>  <Unit>
nM

>  <Type>
IC50

>  <pValue>
6.57

>  <Ligand Efficiency>
0

>  <Binding Efficiency>
6.18

>  <Surface Efficiency>
0

>  <Assay Index>
977531

>  <Assay Category>


>  <Assay Organism>
Homo sapiens

>  <Target ID>
11307

>  <Target Name>
Histone deacetylase 6

>  <Target Organism>
Homo sapiens

>  <Target Description>
Target is a single protein chain

>  <Sequence Accession>
Q9UBN7

>  <Reference>
Bioorg. Med. Chem. 23 (24), 7543-7564 (2015)

>  <Pubmed ID>
26585275

>  <DOI>
10.1016/j.bmc.2015.10.045

$$$$
2337377
 OpenBabel03252423443D

168172  0  0  0  0  0  0  0  0999 V2000
    0.6157   -0.1559   -0.1140 O   0  0  0  0  0  0  0  0  0  0  0  0
    1.8374   -0.0904   -0.1052 C   0  0  0  0  0  0  0  0  0  0  0  0
    2.6409   -1.1604   -0.3457 O   0  0  0  0  0  0  0  0  0  0  0  0
    2.6270    1.1672    0.2188 C   0  0  2  0  0  0  0  0  0  0  0  0
    1.9757   -2.3832   -0.7725 C   0  0  2  0  0  0  0  0  0  0  0  0
    2.7411    1.2853    1.8324 C   0  0  2  0  0  0  0  0  0  0  0  0
    2.0265    2.2471   -0.7101 C   0  0  0  0  0  0  0  0  0  0  0  0
    2.7814   -3.6180   -0.2050 C   0  0  2  0  0  0  0  0  0  0  0  0
    1.8588   -2.3826   -2.3184 C   0  0  0  0  0  0  0  0  0  0  0  0
    2.0464    2.3992    2.4176 O   0  0  0  0  0  0  0  0  0  0  0  0
    4.2444    1.2193    2.3776 C   0  0  1  0  0  0  0  0  0  0  0  0
    2.1652   -4.8274   -0.6924 O   0  0  0  0  0  0  0  0  0  0  0  0
    2.7882   -3.7224    1.4023 C   0  0  2  0  0  0  0  0  0  0  0  0
    4.1922   -3.6061   -0.8282 C   0  0  0  0  0  0  0  0  0  0  0  0
    1.0261   -1.2475   -2.9034 C   0  0  0  0  0  0  0  0  0  0  0  0
    0.6754    2.5032    2.0441 C   0  0  2  0  0  0  0  0  0  0  0  0
    4.5624    1.2482    3.9815 C   0  0  2  0  0  0  0  0  0  0  0  0
    4.9427    0.0653    1.6810 C   0  0  0  0  0  0  0  0  0  0  0  0
    2.4356   -2.5055    2.0632 O   0  0  0  0  0  0  0  0  0  0  0  0
    4.1180   -4.2218    2.0187 C   0  0  1  0  0  0  0  0  0  0  0  0
    0.0601    3.7182    2.3605 O   0  0  0  0  0  0  0  0  0  0  0  0
   -0.2002    1.3277    2.3283 C   0  0  0  0  0  0  0  0  0  0  0  0
    5.6029    2.2455    4.2678 O   0  0  0  0  0  0  0  0  0  0  0  0
    5.1865   -0.0970    4.7376 C   0  0  1  0  0  0  0  0  0  0  0  0
    4.3307   -3.8162    3.4849 C   0  0  0  0  0  0  0  0  0  0  0  0
    4.3278   -5.7297    1.9050 C   0  0  0  0  0  0  0  0  0  0  0  0
   -0.5528    3.8647    3.6303 C   0  0  2  0  0  0  0  0  0  0  0  0
   -0.6662    1.2246    3.7689 C   0  0  2  0  0  0  0  0  0  0  0  0
    5.2501    3.6131    4.3865 C   0  0  2  0  0  0  0  0  0  0  0  0
    5.0951    0.0527    6.1998 O   0  0  0  0  0  0  0  0  0  0  0  0
    4.5540   -1.4760    4.3490 C   0  0  0  0  0  0  0  0  0  0  0  0
    6.7330   -0.0945    4.6424 C   0  0  0  0  0  0  0  0  0  0  0  0
    3.6663   -4.3465    4.3825 O   0  0  0  0  0  0  0  0  0  0  0  0
    5.3651   -2.7106    3.8395 C   0  0  2  0  0  0  0  0  0  0  0  0
   -1.3292    2.6051    4.2159 C   0  0  1  0  0  0  0  0  0  0  0  0
   -1.3494    5.1523    3.3862 C   0  0  0  0  0  0  0  0  0  0  0  0
    0.4708    1.0982    4.6683 O   0  0  0  0  0  0  0  0  0  0  0  0
   -1.5019   -0.0693    3.8346 C   0  0  0  0  0  0  0  0  0  0  0  0
    5.2010    4.2690    3.1140 O   0  0  0  0  0  0  0  0  0  0  0  0
    6.1988    4.4379    5.3240 C   0  0  2  0  0  0  0  0  0  0  0  0
    3.8503    0.0388    6.8658 C   0  0  0  0  0  0  0  0  0  0  0  0
    6.4371   -2.5623    2.7541 C   0  0  0  0  0  0  0  0  0  0  0  0
   -1.0452    2.6852    5.6810 O   0  0  0  0  0  0  0  0  0  0  0  0
   -2.8859    2.7101    4.3081 C   0  0  0  0  0  0  0  0  0  0  0  0
    1.1647   -0.1224    4.8213 C   0  0  0  0  0  0  0  0  0  0  0  0
    6.4647    4.4859    2.4718 C   0  0  1  0  0  0  0  0  0  0  0  0
    5.6290    5.7643    5.5025 O   0  0  0  0  0  0  0  0  0  0  0  0
    7.6482    4.6130    4.7531 C   0  0  2  0  0  0  0  0  0  0  0  0
   -3.9107    2.8680    3.2493 N   0  0  0  0  0  0  0  0  0  0  0  0
    7.4763    5.2290    3.3487 C   0  0  0  0  0  0  0  0  0  0  0  0
    7.0593    3.2261    1.8573 C   0  0  0  0  0  0  0  0  0  0  0  0
    8.4665    3.3726    4.8463 N   0  0  0  0  0  0  0  0  0  0  0  0
   -4.0808    1.6525    2.4304 C   0  0  0  0  0  0  0  0  0  0  0  0
   -5.1772    3.1667    3.9753 C   0  0  0  0  0  0  0  0  0  0  0  0
    8.8657    3.1049    6.2328 C   0  0  0  0  0  0  0  0  0  0  0  0
    9.6644    3.3110    4.0105 C   0  0  0  0  0  0  0  0  0  0  0  0
   -5.2740    1.7073    1.5052 C   0  0  0  0  0  0  0  0  0  0  0  0
   -5.3456    2.6258    0.4588 C   0  0  0  0  0  0  0  0  0  0  0  0
   -6.3721    0.8454    1.7304 C   0  0  0  0  0  0  0  0  0  0  0  0
   -6.5490    2.8143   -0.2220 C   0  0  0  0  0  0  0  0  0  0  0  0
   -7.5755    1.0324    1.0429 C   0  0  0  0  0  0  0  0  0  0  0  0
   -7.6883    2.0713    0.1186 C   0  0  0  0  0  0  0  0  0  0  0  0
   -9.0049    2.5195   -0.2872 C   0  0  0  0  0  0  0  0  0  0  0  0
  -10.1276    1.7399   -0.3871 N   0  0  0  0  0  0  0  0  0  0  0  0
   -9.3664    3.8463   -0.3438 C   0  0  0  0  0  0  0  0  0  0  0  0
  -11.1836    2.5484   -0.4595 N   0  0  0  0  0  0  0  0  0  0  0  0
  -10.7281    3.8093   -0.3575 N   0  0  0  0  0  0  0  0  0  0  0  0
  -11.6076    4.8959    0.0140 C   0  0  0  0  0  0  0  0  0  0  0  0
  -11.7025    5.9729   -1.0583 C   0  0  0  0  0  0  0  0  0  0  0  0
  -12.5295    7.1648   -0.5744 C   0  0  0  0  0  0  0  0  0  0  0  0
  -12.6034    8.2353   -1.6605 C   0  0  0  0  0  0  0  0  0  0  0  0
  -13.4354    9.4337   -1.2232 C   0  0  0  0  0  0  0  0  0  0  0  0
  -13.4696   10.5158   -2.2785 C   0  0  0  0  0  0  0  0  0  0  0  0
  -12.8775   10.4663   -3.3585 O   0  0  0  0  0  0  0  0  0  0  0  0
  -14.2280   11.6141   -1.9179 N   0  0  0  0  0  0  0  0  0  0  0  0
  -14.3976   12.5935   -2.9161 O   0  0  0  0  0  0  0  0  0  0  0  0
    3.6223    1.0566   -0.2066 H   0  0  0  0  0  0  0  0  0  0  0  0
    0.9605   -2.4438   -0.3568 H   0  0  0  0  0  0  0  0  0  0  0  0
    2.3010    0.3809    2.2590 H   0  0  0  0  0  0  0  0  0  0  0  0
    0.9318    2.2011   -0.8029 H   0  0  0  0  0  0  0  0  0  0  0  0
    2.3491    2.0553   -1.7426 H   0  0  0  0  0  0  0  0  0  0  0  0
    2.3336    3.2603   -0.4451 H   0  0  0  0  0  0  0  0  0  0  0  0
    1.4258   -3.3313   -2.6517 H   0  0  0  0  0  0  0  0  0  0  0  0
    2.8501   -2.2881   -2.7727 H   0  0  0  0  0  0  0  0  0  0  0  0
    4.6740    2.1486    1.9906 H   0  0  0  0  0  0  0  0  0  0  0  0
    1.2477   -4.8668   -0.3645 H   0  0  0  0  0  0  0  0  0  0  0  0
    2.0018   -4.4327    1.6917 H   0  0  0  0  0  0  0  0  0  0  0  0
    4.1511   -3.6689   -1.9196 H   0  0  0  0  0  0  0  0  0  0  0  0
    4.7745   -4.4888   -0.5528 H   0  0  0  0  0  0  0  0  0  0  0  0
    4.7508   -2.7057   -0.5544 H   0  0  0  0  0  0  0  0  0  0  0  0
    0.0307   -1.2060   -2.4527 H   0  0  0  0  0  0  0  0  0  0  0  0
    0.9016   -1.3939   -3.9813 H   0  0  0  0  0  0  0  0  0  0  0  0
    1.5202   -0.2804   -2.7698 H   0  0  0  0  0  0  0  0  0  0  0  0
    0.6620    2.6004    0.9803 H   0  0  0  0  0  0  0  0  0  0  0  0
    3.6652    1.5683    4.5159 H   0  0  0  0  0  0  0  0  0  0  0  0
    4.3987   -0.8687    1.8347 H   0  0  0  0  0  0  0  0  0  0  0  0
    5.9727   -0.0122    2.0039 H   0  0  0  0  0  0  0  0  0  0  0  0
    5.0370    0.1716    0.6026 H   0  0  0  0  0  0  0  0  0  0  0  0
    2.1561   -1.8450    1.4191 H   0  0  0  0  0  0  0  0  0  0  0  0
    4.9194   -3.7699    1.4522 H   0  0  0  0  0  0  0  0  0  0  0  0
    0.2957    0.3925    2.0746 H   0  0  0  0  0  0  0  0  0  0  0  0
   -1.0835    1.4017    1.6774 H   0  0  0  0  0  0  0  0  0  0  0  0
    3.6491   -6.2840    2.5600 H   0  0  0  0  0  0  0  0  0  0  0  0
    5.3522   -5.9799    2.2070 H   0  0  0  0  0  0  0  0  0  0  0  0
    4.1855   -6.0893    0.8834 H   0  0  0  0  0  0  0  0  0  0  0  0
    0.2537    4.1219    4.3289 H   0  0  0  0  0  0  0  0  0  0  0  0
    4.2452    3.6868    4.8210 H   0  0  0  0  0  0  0  0  0  0  0  0
    3.6980   -1.2988    3.7017 H   0  0  0  0  0  0  0  0  0  0  0  0
    4.0798   -1.8870    5.2466 H   0  0  0  0  0  0  0  0  0  0  0  0
    7.1744    0.6513    5.3161 H   0  0  0  0  0  0  0  0  0  0  0  0
    7.1079    0.1280    3.6443 H   0  0  0  0  0  0  0  0  0  0  0  0
    7.1565   -1.0416    4.9926 H   0  0  0  0  0  0  0  0  0  0  0  0
    5.9081   -3.1133    4.7070 H   0  0  0  0  0  0  0  0  0  0  0  0
   -2.0517    5.0297    2.5519 H   0  0  0  0  0  0  0  0  0  0  0  0
   -0.6601    5.9408    3.0462 H   0  0  0  0  0  0  0  0  0  0  0  0
   -1.8737    5.5274    4.2655 H   0  0  0  0  0  0  0  0  0  0  0  0
   -0.9375   -0.9094    3.4013 H   0  0  0  0  0  0  0  0  0  0  0  0
   -2.3843   -0.0496    3.2065 H   0  0  0  0  0  0  0  0  0  0  0  0
   -1.7538   -0.3661    4.8531 H   0  0  0  0  0  0  0  0  0  0  0  0
    6.2297    3.9989    6.3238 H   0  0  0  0  0  0  0  0  0  0  0  0
    4.0462    0.1782    7.9343 H   0  0  0  0  0  0  0  0  0  0  0  0
    3.3372   -0.9222    6.7799 H   0  0  0  0  0  0  0  0  0  0  0  0
    3.2102    0.8554    6.5373 H   0  0  0  0  0  0  0  0  0  0  0  0
    6.0487   -2.2070    1.7996 H   0  0  0  0  0  0  0  0  0  0  0  0
    6.8991   -3.5348    2.5520 H   0  0  0  0  0  0  0  0  0  0  0  0
    7.2594   -1.9037    3.0257 H   0  0  0  0  0  0  0  0  0  0  0  0
   -0.3702    1.9950    5.8449 H   0  0  0  0  0  0  0  0  0  0  0  0
   -3.0239    3.5981    4.9467 H   0  0  0  0  0  0  0  0  0  0  0  0
   -3.2058    1.8828    4.9604 H   0  0  0  0  0  0  0  0  0  0  0  0
    1.2258   -0.3341    5.8914 H   0  0  0  0  0  0  0  0  0  0  0  0
    2.1732    0.0233    4.4557 H   0  0  0  0  0  0  0  0  0  0  0  0
    0.7551   -0.9969    4.3228 H   0  0  0  0  0  0  0  0  0  0  0  0
    6.2288    5.1488    1.6314 H   0  0  0  0  0  0  0  0  0  0  0  0
    5.1638    5.9732    4.6691 H   0  0  0  0  0  0  0  0  0  0  0  0
    8.1619    5.3922    5.3392 H   0  0  0  0  0  0  0  0  0  0  0  0
    7.1119    6.2573    3.4784 H   0  0  0  0  0  0  0  0  0  0  0  0
    8.4352    5.3444    2.8301 H   0  0  0  0  0  0  0  0  0  0  0  0
    7.3086    2.4732    2.6072 H   0  0  0  0  0  0  0  0  0  0  0  0
    7.9661    3.4651    1.2959 H   0  0  0  0  0  0  0  0  0  0  0  0
    6.3677    2.7611    1.1559 H   0  0  0  0  0  0  0  0  0  0  0  0
   -4.1961    0.7788    3.0833 H   0  0  0  0  0  0  0  0  0  0  0  0
   -3.1960    1.5070    1.8091 H   0  0  0  0  0  0  0  0  0  0  0  0
   -5.0785    4.0893    4.5603 H   0  0  0  0  0  0  0  0  0  0  0  0
   -5.4467    2.3578    4.6685 H   0  0  0  0  0  0  0  0  0  0  0  0
   -6.0242    3.3410    3.3065 H   0  0  0  0  0  0  0  0  0  0  0  0
    9.3899    2.1431    6.3022 H   0  0  0  0  0  0  0  0  0  0  0  0
    8.0096    3.0213    6.9050 H   0  0  0  0  0  0  0  0  0  0  0  0
    9.5385    3.8807    6.6246 H   0  0  0  0  0  0  0  0  0  0  0  0
   10.1720    2.3484    4.1558 H   0  0  0  0  0  0  0  0  0  0  0  0
   10.3806    4.1121    4.2261 H   0  0  0  0  0  0  0  0  0  0  0  0
    9.4348    3.3371    2.9462 H   0  0  0  0  0  0  0  0  0  0  0  0
   -4.4991    3.2666    0.2496 H   0  0  0  0  0  0  0  0  0  0  0  0
   -6.3319    0.0819    2.5086 H   0  0  0  0  0  0  0  0  0  0  0  0
   -6.6065    3.6047   -0.9649 H   0  0  0  0  0  0  0  0  0  0  0  0
   -8.4438    0.4281    1.3066 H   0  0  0  0  0  0  0  0  0  0  0  0
   -8.8104    4.7632   -0.2176 H   0  0  0  0  0  0  0  0  0  0  0  0
  -11.2003    5.3159    0.9425 H   0  0  0  0  0  0  0  0  0  0  0  0
  -12.5942    4.4793    0.2449 H   0  0  0  0  0  0  0  0  0  0  0  0
  -12.1501    5.5497   -1.9656 H   0  0  0  0  0  0  0  0  0  0  0  0
  -10.6984    6.3192   -1.3340 H   0  0  0  0  0  0  0  0  0  0  0  0
  -12.0758    7.5879    0.3315 H   0  0  0  0  0  0  0  0  0  0  0  0
  -13.5391    6.8321   -0.3050 H   0  0  0  0  0  0  0  0  0  0  0  0
  -13.0359    7.8041   -2.5713 H   0  0  0  0  0  0  0  0  0  0  0  0
  -11.5889    8.5643   -1.9184 H   0  0  0  0  0  0  0  0  0  0  0  0
  -13.0170    9.8691   -0.3030 H   0  0  0  0  0  0  0  0  0  0  0  0
  -14.4648    9.1200   -1.0135 H   0  0  0  0  0  0  0  0  0  0  0  0
  -14.9536   11.5507   -1.2127 H   0  0  0  0  0  0  0  0  0  0  0  0
  -13.8420   12.2473   -3.6495 H   0  0  0  0  0  0  0  0  0  0  0  0
  1  2  2  0  0  0  0
  2  3  1  0  0  0  0
  2  4  1  0  0  0  0
  3  5  1  0  0  0  0
  4  6  1  1  0  0  0
  4  7  1  0  0  0  0
  4 77  1  0  0  0  0
  5  8  1  1  0  0  0
  5  9  1  0  0  0  0
  5 78  1  0  0  0  0
  6 10  1  0  0  0  0
  6 11  1  1  0  0  0
  6 79  1  0  0  0  0
  7 80  1  0  0  0  0
  7 81  1  0  0  0  0
  7 82  1  0  0  0  0
  8 12  1  0  0  0  0
  8 13  1  1  0  0  0
  8 14  1  0  0  0  0
  9 15  1  0  0  0  0
  9 83  1  0  0  0  0
  9 84  1  0  0  0  0
 11 17  1  1  0  0  0
 11 18  1  0  0  0  0
 11 85  1  0  0  0  0
 12 86  1  0  0  0  0
 13 20  1  1  0  0  0
 13 19  1  0  0  0  0
 13 87  1  0  0  0  0
 14 88  1  0  0  0  0
 14 89  1  0  0  0  0
 14 90  1  0  0  0  0
 15 91  1  0  0  0  0
 15 92  1  0  0  0  0
 15 93  1  0  0  0  0
 16 10  1  0  0  0  0
 16 21  1  0  0  0  0
 16 22  1  0  0  0  0
 16 94  1  6  0  0  0
 17 23  1  0  0  0  0
 17 24  1  1  0  0  0
 17 95  1  0  0  0  0
 18 96  1  0  0  0  0
 18 97  1  0  0  0  0
 18 98  1  0  0  0  0
 19 99  1  0  0  0  0
 20 25  1  0  0  0  0
 20 26  1  0  0  0  0
 20100  1  6  0  0  0
 21 27  1  0  0  0  0
 22 28  1  0  0  0  0
 22101  1  0  0  0  0
 22102  1  0  0  0  0
 24 30  1  1  0  0  0
 24 31  1  0  0  0  0
 24 32  1  0  0  0  0
 25 33  2  0  0  0  0
 25 34  1  0  0  0  0
 26103  1  0  0  0  0
 26104  1  0  0  0  0
 26105  1  0  0  0  0
 27 35  1  1  0  0  0
 27 36  1  0  0  0  0
 27106  1  0  0  0  0
 28 37  1  0  0  0  0
 28 38  1  0  0  0  0
 28 35  1  1  0  0  0
 29 23  1  0  0  0  0
 29 39  1  0  0  0  0
 29 40  1  1  0  0  0
 29107  1  0  0  0  0
 30 41  1  0  0  0  0
 31 34  1  0  0  0  0
 31108  1  0  0  0  0
 31109  1  0  0  0  0
 32110  1  0  0  0  0
 32111  1  0  0  0  0
 32112  1  0  0  0  0
 34 42  1  0  0  0  0
 34113  1  1  0  0  0
 35 43  1  1  0  0  0
 35 44  1  0  0  0  0
 36114  1  0  0  0  0
 36115  1  0  0  0  0
 36116  1  0  0  0  0
 37 45  1  0  0  0  0
 38117  1  0  0  0  0
 38118  1  0  0  0  0
 38119  1  0  0  0  0
 39 46  1  0  0  0  0
 40 48  1  6  0  0  0
 40 47  1  0  0  0  0
 40120  1  0  0  0  0
 41121  1  0  0  0  0
 41122  1  0  0  0  0
 41123  1  0  0  0  0
 42124  1  0  0  0  0
 42125  1  0  0  0  0
 42126  1  0  0  0  0
 43127  1  0  0  0  0
 44 49  1  0  0  0  0
 44128  1  0  0  0  0
 44129  1  0  0  0  0
 45130  1  0  0  0  0
 45131  1  0  0  0  0
 45132  1  0  0  0  0
 46 50  1  0  0  0  0
 46 51  1  0  0  0  0
 46133  1  6  0  0  0
 47134  1  0  0  0  0
 48 50  1  0  0  0  0
 48 52  1  0  0  0  0
 48135  1  1  0  0  0
 49 53  1  0  0  0  0
 49 54  1  0  0  0  0
 50136  1  0  0  0  0
 50137  1  0  0  0  0
 51138  1  0  0  0  0
 51139  1  0  0  0  0
 51140  1  0  0  0  0
 52 55  1  0  0  0  0
 52 56  1  0  0  0  0
 53 57  1  0  0  0  0
 53141  1  0  0  0  0
 53142  1  0  0  0  0
 54143  1  0  0  0  0
 54144  1  0  0  0  0
 54145  1  0  0  0  0
 55146  1  0  0  0  0
 55147  1  0  0  0  0
 55148  1  0  0  0  0
 56149  1  0  0  0  0
 56150  1  0  0  0  0
 56151  1  0  0  0  0
 57 58  2  0  0  0  0
 57 59  1  0  0  0  0
 58 60  1  0  0  0  0
 58152  1  0  0  0  0
 59 61  2  0  0  0  0
 59153  1  0  0  0  0
 60 62  2  0  0  0  0
 60154  1  0  0  0  0
 61 62  1  0  0  0  0
 61155  1  0  0  0  0
 62 63  1  0  0  0  0
 63 64  1  0  0  0  0
 63 65  2  0  0  0  0
 64 66  2  0  0  0  0
 65 67  1  0  0  0  0
 65156  1  0  0  0  0
 66 67  1  0  0  0  0
 67 68  1  0  0  0  0
 68 69  1  0  0  0  0
 68157  1  0  0  0  0
 68158  1  0  0  0  0
 69 70  1  0  0  0  0
 69159  1  0  0  0  0
 69160  1  0  0  0  0
 70 71  1  0  0  0  0
 70161  1  0  0  0  0
 70162  1  0  0  0  0
 71 72  1  0  0  0  0
 71163  1  0  0  0  0
 71164  1  0  0  0  0
 72 73  1  0  0  0  0
 72165  1  0  0  0  0
 72166  1  0  0  0  0
 73 74  2  0  0  0  0
 73 75  1  0  0  0  0
 75 76  1  0  0  0  0
 75167  1  0  0  0  0
 76168  1  0  0  0  0
M  END
>  <Molecule Name>
2337377

>  <MolRegNo>
2337377

>  <m>
=

>  <Value>
5.89

>  <Unit>
nM

>  <Type>
IC50

>  <pValue>
8.23

>  <Ligand Efficiency>
0

>  <Binding Efficiency>
7.64

>  <Surface Efficiency>
0

>  <Assay Index>
977531

>  <Assay Category>


>  <Assay Organism>
Homo sapiens

>  <Target ID>
11307

>  <Target Name>
Histone deacetylase 6

>  <Target Organism>
Homo sapiens

>  <Target Description>
Target is a single protein chain

>  <Sequence Accession>
Q9UBN7

>  <Reference>
Bioorg. Med. Chem. 23 (24), 7543-7564 (2015)

>  <Pubmed ID>
26585275

>  <DOI>
10.1016/j.bmc.2015.10.045

$$$$
2337321
 OpenBabel03252423443D

171175  0  0  0  0  0  0  0  0999 V2000
    0.5449   -0.1818   -0.0938 O   0  0  0  0  0  0  0  0  0  0  0  0
    1.7663   -0.1311   -0.0679 C   0  0  0  0  0  0  0  0  0  0  0  0
    2.5703   -1.2029   -0.3123 O   0  0  0  0  0  0  0  0  0  0  0  0
    2.5699    1.1190    0.2605 C   0  0  2  0  0  0  0  0  0  0  0  0
    1.8989   -2.4185   -0.7539 C   0  0  2  0  0  0  0  0  0  0  0  0
    2.6828    1.2562    1.8672 C   0  0  2  0  0  0  0  0  0  0  0  0
    2.0047    2.2077   -0.6739 C   0  0  0  0  0  0  0  0  0  0  0  0
    2.7011   -3.6631   -0.2029 C   0  0  2  0  0  0  0  0  0  0  0  0
    1.7853   -2.4080   -2.3014 C   0  0  0  0  0  0  0  0  0  0  0  0
    2.0118    2.3930    2.4432 O   0  0  0  0  0  0  0  0  0  0  0  0
    4.1941    1.1899    2.4017 C   0  0  1  0  0  0  0  0  0  0  0  0
    2.0821   -4.8656   -0.7015 O   0  0  0  0  0  0  0  0  0  0  0  0
    2.6974   -3.7765    1.4007 C   0  0  2  0  0  0  0  0  0  0  0  0
    4.1156   -3.6467   -0.8209 C   0  0  0  0  0  0  0  0  0  0  0  0
    0.9675   -1.2615   -2.8838 C   0  0  0  0  0  0  0  0  0  0  0  0
    0.6439    2.5457    2.0659 C   0  0  2  0  0  0  0  0  0  0  0  0
    4.5003    1.2227    3.9976 C   0  0  2  0  0  0  0  0  0  0  0  0
    4.9059    0.0313    1.7151 C   0  0  0  0  0  0  0  0  0  0  0  0
    2.2482   -2.5756    2.0325 O   0  0  0  0  0  0  0  0  0  0  0  0
    4.0418   -4.2318    2.0245 C   0  0  1  0  0  0  0  0  0  0  0  0
    0.0544    3.7677    2.4149 O   0  0  0  0  0  0  0  0  0  0  0  0
   -0.2677    1.3775    2.3221 C   0  0  0  0  0  0  0  0  0  0  0  0
    5.5457    2.2151    4.2661 O   0  0  0  0  0  0  0  0  0  0  0  0
    5.1093   -0.1183    4.7621 C   0  0  1  0  0  0  0  0  0  0  0  0
    4.2231   -3.8199    3.4950 C   0  0  0  0  0  0  0  0  0  0  0  0
    4.2925   -5.7255    1.9140 C   0  0  0  0  0  0  0  0  0  0  0  0
   -0.5655    3.8964    3.6841 C   0  0  2  0  0  0  0  0  0  0  0  0
   -0.7566    1.2679    3.7514 C   0  0  2  0  0  0  0  0  0  0  0  0
    5.1967    3.5856    4.3596 C   0  0  2  0  0  0  0  0  0  0  0  0
    5.0041    0.0417    6.2215 O   0  0  0  0  0  0  0  0  0  0  0  0
    4.4678   -1.4936    4.3695 C   0  0  0  0  0  0  0  0  0  0  0  0
    6.6575   -0.1263    4.6804 C   0  0  0  0  0  0  0  0  0  0  0  0
    3.5349   -4.3438    4.3814 O   0  0  0  0  0  0  0  0  0  0  0  0
    5.2691   -2.7399    3.8699 C   0  0  2  0  0  0  0  0  0  0  0  0
   -1.3948    2.6532    4.2179 C   0  0  1  0  0  0  0  0  0  0  0  0
   -1.3237    5.2157    3.4911 C   0  0  0  0  0  0  0  0  0  0  0  0
    0.3653    1.0944    4.6647 O   0  0  0  0  0  0  0  0  0  0  0  0
   -1.6333    0.0003    3.7908 C   0  0  0  0  0  0  0  0  0  0  0  0
    5.1490    4.2240    3.0770 O   0  0  0  0  0  0  0  0  0  0  0  0
    6.1503    4.4111    5.2868 C   0  0  2  0  0  0  0  0  0  0  0  0
    3.7513    0.0396    6.8750 C   0  0  0  0  0  0  0  0  0  0  0  0
    6.3862   -2.6063    2.8283 C   0  0  0  0  0  0  0  0  0  0  0  0
   -1.1542    2.6847    5.6914 O   0  0  0  0  0  0  0  0  0  0  0  0
   -2.9521    2.8074    4.2638 C   0  0  0  0  0  0  0  0  0  0  0  0
    1.0229   -0.1500    4.7969 C   0  0  0  0  0  0  0  0  0  0  0  0
    6.4090    4.4316    2.4289 C   0  0  1  0  0  0  0  0  0  0  0  0
    5.5897    5.7396    5.4665 O   0  0  0  0  0  0  0  0  0  0  0  0
    7.5971    4.5746    4.7078 C   0  0  2  0  0  0  0  0  0  0  0  0
   -3.9419    3.0232    3.1746 N   0  0  0  0  0  0  0  0  0  0  0  0
    7.4238    5.1774    3.2973 C   0  0  0  0  0  0  0  0  0  0  0  0
    6.9962    3.1676    1.8134 C   0  0  0  0  0  0  0  0  0  0  0  0
    8.4136    3.3323    4.8069 N   0  0  0  0  0  0  0  0  0  0  0  0
   -4.0559    1.8396    2.3066 C   0  0  0  0  0  0  0  0  0  0  0  0
   -5.2328    3.2701    3.8750 C   0  0  0  0  0  0  0  0  0  0  0  0
    8.8082    3.0661    6.1983 C   0  0  0  0  0  0  0  0  0  0  0  0
    9.6174    3.2811    3.9776 C   0  0  0  0  0  0  0  0  0  0  0  0
   -5.2333    1.7642    1.3589 C   0  0  0  0  0  0  0  0  0  0  0  0
   -5.7507    2.8754    0.6821 C   0  0  0  0  0  0  0  0  0  0  0  0
   -5.8581    0.5211    1.1984 C   0  0  0  0  0  0  0  0  0  0  0  0
   -6.9983    2.7938    0.0525 C   0  0  0  0  0  0  0  0  0  0  0  0
   -7.0811    0.4353    0.5511 C   0  0  0  0  0  0  0  0  0  0  0  0
   -7.7079    1.5897    0.0644 C   0  0  0  0  0  0  0  0  0  0  0  0
   -9.0989    1.5248   -0.3256 C   0  0  0  0  0  0  0  0  0  0  0  0
   -9.7574    2.3852   -1.1616 N   0  0  0  0  0  0  0  0  0  0  0  0
   -9.9872    0.5820    0.1417 C   0  0  0  0  0  0  0  0  0  0  0  0
  -11.0042    1.9404   -1.3079 N   0  0  0  0  0  0  0  0  0  0  0  0
  -11.1212    0.8276   -0.5639 N   0  0  0  0  0  0  0  0  0  0  0  0
  -12.2091   -0.1032   -0.7531 C   0  0  0  0  0  0  0  0  0  0  0  0
  -13.0979   -0.2571    0.4768 C   0  0  0  0  0  0  0  0  0  0  0  0
  -14.1027   -1.3865    0.2575 C   0  0  0  0  0  0  0  0  0  0  0  0
  -15.0167   -1.5722    1.4678 C   0  0  0  0  0  0  0  0  0  0  0  0
  -16.0178   -2.6884    1.2121 C   0  0  0  0  0  0  0  0  0  0  0  0
  -16.9601   -2.8991    2.3931 C   0  0  0  0  0  0  0  0  0  0  0  0
  -17.9552   -3.9915    2.1007 C   0  0  0  0  0  0  0  0  0  0  0  0
  -18.0386   -4.6118    1.0318 O   0  0  0  0  0  0  0  0  0  0  0  0
  -18.8266   -4.2359    3.1422 N   0  0  0  0  0  0  0  0  0  0  0  0
  -19.7124   -5.3201    2.9198 O   0  0  0  0  0  0  0  0  0  0  0  0
    3.5648    0.9854   -0.1581 H   0  0  0  0  0  0  0  0  0  0  0  0
    0.8841   -2.4775   -0.3384 H   0  0  0  0  0  0  0  0  0  0  0  0
    2.2289    0.3657    2.3087 H   0  0  0  0  0  0  0  0  0  0  0  0
    0.9110    2.1789   -0.7765 H   0  0  0  0  0  0  0  0  0  0  0  0
    2.3422    2.0136   -1.7011 H   0  0  0  0  0  0  0  0  0  0  0  0
    2.3290    3.2137   -0.4011 H   0  0  0  0  0  0  0  0  0  0  0  0
    1.3422   -3.3503   -2.6409 H   0  0  0  0  0  0  0  0  0  0  0  0
    2.7787   -2.3245   -2.7539 H   0  0  0  0  0  0  0  0  0  0  0  0
    4.6185    2.1073    2.0079 H   0  0  0  0  0  0  0  0  0  0  0  0
    1.1684   -4.9009   -0.3629 H   0  0  0  0  0  0  0  0  0  0  0  0
    1.9431   -4.5226    1.6834 H   0  0  0  0  0  0  0  0  0  0  0  0
    4.0798   -3.7208   -1.9118 H   0  0  0  0  0  0  0  0  0  0  0  0
    4.7060   -4.5200   -0.5335 H   0  0  0  0  0  0  0  0  0  0  0  0
    4.6680   -2.7399   -0.5544 H   0  0  0  0  0  0  0  0  0  0  0  0
   -0.0284   -1.2107   -2.4358 H   0  0  0  0  0  0  0  0  0  0  0  0
    0.8439   -1.4016   -3.9627 H   0  0  0  0  0  0  0  0  0  0  0  0
    1.4732   -0.3011   -2.7444 H   0  0  0  0  0  0  0  0  0  0  0  0
    0.6431    2.6743    1.0037 H   0  0  0  0  0  0  0  0  0  0  0  0
    3.6030    1.5526    4.5272 H   0  0  0  0  0  0  0  0  0  0  0  0
    4.3489   -0.8928    1.8590 H   0  0  0  0  0  0  0  0  0  0  0  0
    5.9252   -0.0729    2.0634 H   0  0  0  0  0  0  0  0  0  0  0  0
    5.0137    0.1405    0.6378 H   0  0  0  0  0  0  0  0  0  0  0  0
    2.4642   -1.8299    1.4565 H   0  0  0  0  0  0  0  0  0  0  0  0
    4.8285   -3.7370    1.4656 H   0  0  0  0  0  0  0  0  0  0  0  0
    0.2224    0.4412    2.0668 H   0  0  0  0  0  0  0  0  0  0  0  0
   -1.1231    1.4801    1.6505 H   0  0  0  0  0  0  0  0  0  0  0  0
    3.6325   -6.2979    2.5743 H   0  0  0  0  0  0  0  0  0  0  0  0
    5.3252   -5.9506    2.2094 H   0  0  0  0  0  0  0  0  0  0  0  0
    4.1507   -6.0941    0.8949 H   0  0  0  0  0  0  0  0  0  0  0  0
    0.2424    4.0993    4.3987 H   0  0  0  0  0  0  0  0  0  0  0  0
    4.1921    3.6699    4.7921 H   0  0  0  0  0  0  0  0  0  0  0  0
    3.6189   -1.3142    3.7110 H   0  0  0  0  0  0  0  0  0  0  0  0
    3.9795   -1.8961    5.2652 H   0  0  0  0  0  0  0  0  0  0  0  0
    7.0975    0.6302    5.3435 H   0  0  0  0  0  0  0  0  0  0  0  0
    7.0461    0.0752    3.6836 H   0  0  0  0  0  0  0  0  0  0  0  0
    7.0718   -1.0691    5.0529 H   0  0  0  0  0  0  0  0  0  0  0  0
    5.7848   -3.1476    4.7532 H   0  0  0  0  0  0  0  0  0  0  0  0
   -2.0175    5.1509    2.6423 H   0  0  0  0  0  0  0  0  0  0  0  0
   -0.6098    6.0023    3.2006 H   0  0  0  0  0  0  0  0  0  0  0  0
   -1.8534    5.5583    4.3790 H   0  0  0  0  0  0  0  0  0  0  0  0
   -1.0934   -0.8596    3.3682 H   0  0  0  0  0  0  0  0  0  0  0  0
   -2.4954    0.0534    3.1392 H   0  0  0  0  0  0  0  0  0  0  0  0
   -1.9269   -0.2854    4.8007 H   0  0  0  0  0  0  0  0  0  0  0  0
    6.1832    3.9725    6.2871 H   0  0  0  0  0  0  0  0  0  0  0  0
    3.9368    0.1911    7.9438 H   0  0  0  0  0  0  0  0  0  0  0  0
    3.2367   -0.9200    6.7928 H   0  0  0  0  0  0  0  0  0  0  0  0
    3.1152    0.8532    6.5301 H   0  0  0  0  0  0  0  0  0  0  0  0
    6.0220   -2.2408    1.8603 H   0  0  0  0  0  0  0  0  0  0  0  0
    6.8203   -3.6013    2.6157 H   0  0  0  0  0  0  0  0  0  0  0  0
    7.2110   -1.9757    3.1128 H   0  0  0  0  0  0  0  0  0  0  0  0
   -0.5083    1.9678    5.8579 H   0  0  0  0  0  0  0  0  0  0  0  0
   -3.0947    3.6739    4.9295 H   0  0  0  0  0  0  0  0  0  0  0  0
   -3.3117    1.9649    4.8762 H   0  0  0  0  0  0  0  0  0  0  0  0
    0.9903   -0.4394    5.8506 H   0  0  0  0  0  0  0  0  0  0  0  0
    2.0634    0.0031    4.5339 H   0  0  0  0  0  0  0  0  0  0  0  0
    0.6517   -0.9715    4.1893 H   0  0  0  0  0  0  0  0  0  0  0  0
    6.1714    5.0911    1.5858 H   0  0  0  0  0  0  0  0  0  0  0  0
    5.1205    5.9512    4.6353 H   0  0  0  0  0  0  0  0  0  0  0  0
    8.1165    5.3556    5.2851 H   0  0  0  0  0  0  0  0  0  0  0  0
    7.0601    6.2082    3.4208 H   0  0  0  0  0  0  0  0  0  0  0  0
    8.3807    5.2895    2.7757 H   0  0  0  0  0  0  0  0  0  0  0  0
    7.2394    2.4115    2.5624 H   0  0  0  0  0  0  0  0  0  0  0  0
    7.9048    3.4003    1.2521 H   0  0  0  0  0  0  0  0  0  0  0  0
    6.3004    2.7100    1.1101 H   0  0  0  0  0  0  0  0  0  0  0  0
   -4.1620    0.9693    2.9625 H   0  0  0  0  0  0  0  0  0  0  0  0
   -3.1566    1.7352    1.7006 H   0  0  0  0  0  0  0  0  0  0  0  0
   -5.1608    4.1684    4.4999 H   0  0  0  0  0  0  0  0  0  0  0  0
   -5.5150    2.4289    4.5228 H   0  0  0  0  0  0  0  0  0  0  0  0
   -6.0661    3.4625    3.1963 H   0  0  0  0  0  0  0  0  0  0  0  0
    9.3332    2.1060    6.2685 H   0  0  0  0  0  0  0  0  0  0  0  0
    7.9464    2.9815    6.8643 H   0  0  0  0  0  0  0  0  0  0  0  0
    9.4743    3.8450    6.5888 H   0  0  0  0  0  0  0  0  0  0  0  0
   10.1315    2.3223    4.1262 H   0  0  0  0  0  0  0  0  0  0  0  0
   10.3236    4.0873    4.1975 H   0  0  0  0  0  0  0  0  0  0  0  0
    9.3904    3.3035    2.9111 H   0  0  0  0  0  0  0  0  0  0  0  0
   -5.2362    3.8330    0.7361 H   0  0  0  0  0  0  0  0  0  0  0  0
   -5.4356   -0.3791    1.6392 H   0  0  0  0  0  0  0  0  0  0  0  0
   -7.4384    3.6907   -0.3782 H   0  0  0  0  0  0  0  0  0  0  0  0
   -7.5650   -0.5356    0.4879 H   0  0  0  0  0  0  0  0  0  0  0  0
   -9.8942   -0.2437    0.8306 H   0  0  0  0  0  0  0  0  0  0  0  0
  -11.7413   -1.0645   -1.0026 H   0  0  0  0  0  0  0  0  0  0  0  0
  -12.7898    0.2168   -1.6242 H   0  0  0  0  0  0  0  0  0  0  0  0
  -13.6218    0.6848    0.6768 H   0  0  0  0  0  0  0  0  0  0  0  0
  -12.4915   -0.4775    1.3646 H   0  0  0  0  0  0  0  0  0  0  0  0
  -13.5648   -2.3231    0.0631 H   0  0  0  0  0  0  0  0  0  0  0  0
  -14.7066   -1.1730   -0.6326 H   0  0  0  0  0  0  0  0  0  0  0  0
  -15.5484   -0.6362    1.6763 H   0  0  0  0  0  0  0  0  0  0  0  0
  -14.4150   -1.8089    2.3535 H   0  0  0  0  0  0  0  0  0  0  0  0
  -15.4860   -3.6282    1.0026 H   0  0  0  0  0  0  0  0  0  0  0  0
  -16.6122   -2.4553    0.3175 H   0  0  0  0  0  0  0  0  0  0  0  0
  -17.5034   -1.9717    2.6155 H   0  0  0  0  0  0  0  0  0  0  0  0
  -16.3963   -3.1939    3.2847 H   0  0  0  0  0  0  0  0  0  0  0  0
  -18.6121   -4.0276    4.1078 H   0  0  0  0  0  0  0  0  0  0  0  0
  -19.4780   -5.6030    2.0042 H   0  0  0  0  0  0  0  0  0  0  0  0
  1  2  2  0  0  0  0
  2  3  1  0  0  0  0
  2  4  1  0  0  0  0
  3  5  1  0  0  0  0
  4  6  1  1  0  0  0
  4  7  1  0  0  0  0
  4 78  1  0  0  0  0
  5  8  1  1  0  0  0
  5  9  1  0  0  0  0
  5 79  1  0  0  0  0
  6 10  1  0  0  0  0
  6 11  1  1  0  0  0
  6 80  1  0  0  0  0
  7 81  1  0  0  0  0
  7 82  1  0  0  0  0
  7 83  1  0  0  0  0
  8 12  1  0  0  0  0
  8 13  1  1  0  0  0
  8 14  1  0  0  0  0
  9 15  1  0  0  0  0
  9 84  1  0  0  0  0
  9 85  1  0  0  0  0
 11 17  1  1  0  0  0
 11 18  1  0  0  0  0
 11 86  1  0  0  0  0
 12 87  1  0  0  0  0
 13 20  1  1  0  0  0
 13 19  1  0  0  0  0
 13 88  1  0  0  0  0
 14 89  1  0  0  0  0
 14 90  1  0  0  0  0
 14 91  1  0  0  0  0
 15 92  1  0  0  0  0
 15 93  1  0  0  0  0
 15 94  1  0  0  0  0
 16 10  1  0  0  0  0
 16 21  1  0  0  0  0
 16 22  1  0  0  0  0
 16 95  1  6  0  0  0
 17 23  1  0  0  0  0
 17 24  1  1  0  0  0
 17 96  1  0  0  0  0
 18 97  1  0  0  0  0
 18 98  1  0  0  0  0
 18 99  1  0  0  0  0
 19100  1  0  0  0  0
 20 25  1  0  0  0  0
 20 26  1  0  0  0  0
 20101  1  6  0  0  0
 21 27  1  0  0  0  0
 22 28  1  0  0  0  0
 22102  1  0  0  0  0
 22103  1  0  0  0  0
 24 30  1  1  0  0  0
 24 31  1  0  0  0  0
 24 32  1  0  0  0  0
 25 33  2  0  0  0  0
 25 34  1  0  0  0  0
 26104  1  0  0  0  0
 26105  1  0  0  0  0
 26106  1  0  0  0  0
 27 35  1  1  0  0  0
 27 36  1  0  0  0  0
 27107  1  0  0  0  0
 28 37  1  0  0  0  0
 28 38  1  0  0  0  0
 28 35  1  1  0  0  0
 29 23  1  0  0  0  0
 29 39  1  0  0  0  0
 29 40  1  1  0  0  0
 29108  1  0  0  0  0
 30 41  1  0  0  0  0
 31 34  1  0  0  0  0
 31109  1  0  0  0  0
 31110  1  0  0  0  0
 32111  1  0  0  0  0
 32112  1  0  0  0  0
 32113  1  0  0  0  0
 34 42  1  0  0  0  0
 34114  1  1  0  0  0
 35 43  1  1  0  0  0
 35 44  1  0  0  0  0
 36115  1  0  0  0  0
 36116  1  0  0  0  0
 36117  1  0  0  0  0
 37 45  1  0  0  0  0
 38118  1  0  0  0  0
 38119  1  0  0  0  0
 38120  1  0  0  0  0
 39 46  1  0  0  0  0
 40 48  1  6  0  0  0
 40 47  1  0  0  0  0
 40121  1  0  0  0  0
 41122  1  0  0  0  0
 41123  1  0  0  0  0
 41124  1  0  0  0  0
 42125  1  0  0  0  0
 42126  1  0  0  0  0
 42127  1  0  0  0  0
 43128  1  0  0  0  0
 44 49  1  0  0  0  0
 44129  1  0  0  0  0
 44130  1  0  0  0  0
 45131  1  0  0  0  0
 45132  1  0  0  0  0
 45133  1  0  0  0  0
 46 50  1  0  0  0  0
 46 51  1  0  0  0  0
 46134  1  6  0  0  0
 47135  1  0  0  0  0
 48 50  1  0  0  0  0
 48 52  1  0  0  0  0
 48136  1  1  0  0  0
 49 53  1  0  0  0  0
 49 54  1  0  0  0  0
 50137  1  0  0  0  0
 50138  1  0  0  0  0
 51139  1  0  0  0  0
 51140  1  0  0  0  0
 51141  1  0  0  0  0
 52 55  1  0  0  0  0
 52 56  1  0  0  0  0
 53 57  1  0  0  0  0
 53142  1  0  0  0  0
 53143  1  0  0  0  0
 54144  1  0  0  0  0
 54145  1  0  0  0  0
 54146  1  0  0  0  0
 55147  1  0  0  0  0
 55148  1  0  0  0  0
 55149  1  0  0  0  0
 56150  1  0  0  0  0
 56151  1  0  0  0  0
 56152  1  0  0  0  0
 57 58  2  0  0  0  0
 57 59  1  0  0  0  0
 58 60  1  0  0  0  0
 58153  1  0  0  0  0
 59 61  2  0  0  0  0
 59154  1  0  0  0  0
 60 62  2  0  0  0  0
 60155  1  0  0  0  0
 61 62  1  0  0  0  0
 61156  1  0  0  0  0
 62 63  1  0  0  0  0
 63 64  1  0  0  0  0
 63 65  2  0  0  0  0
 64 66  2  0  0  0  0
 65 67  1  0  0  0  0
 65157  1  0  0  0  0
 66 67  1  0  0  0  0
 67 68  1  0  0  0  0
 68 69  1  0  0  0  0
 68158  1  0  0  0  0
 68159  1  0  0  0  0
 69 70  1  0  0  0  0
 69160  1  0  0  0  0
 69161  1  0  0  0  0
 70 71  1  0  0  0  0
 70162  1  0  0  0  0
 70163  1  0  0  0  0
 71 72  1  0  0  0  0
 71164  1  0  0  0  0
 71165  1  0  0  0  0
 72 73  1  0  0  0  0
 72166  1  0  0  0  0
 72167  1  0  0  0  0
 73 74  1  0  0  0  0
 73168  1  0  0  0  0
 73169  1  0  0  0  0
 74 75  2  0  0  0  0
 74 76  1  0  0  0  0
 76 77  1  0  0  0  0
 76170  1  0  0  0  0
 77171  1  0  0  0  0
M  END
>  <Molecule Name>
2337321

>  <MolRegNo>
2337321

>  <m>
=

>  <Value>
2.85

>  <Unit>
nM

>  <Type>
IC50

>  <pValue>
8.54

>  <Ligand Efficiency>
0

>  <Binding Efficiency>
7.83

>  <Surface Efficiency>
0

>  <Assay Index>
977531

>  <Assay Category>


>  <Assay Organism>
Homo sapiens

>  <Target ID>
11307

>  <Target Name>
Histone deacetylase 6

>  <Target Organism>
Homo sapiens

>  <Target Description>
Target is a single protein chain

>  <Sequence Accession>
Q9UBN7

>  <Reference>
Bioorg. Med. Chem. 23 (24), 7543-7564 (2015)

>  <Pubmed ID>
26585275

>  <DOI>
10.1016/j.bmc.2015.10.045

$$$$
2337358
 OpenBabel03252423443D

171175  0  0  0  0  0  0  0  0999 V2000
    0.0762    4.8257    2.0715 O   0  0  0  0  0  0  0  0  0  0  0  0
   -0.3895    3.6987    1.9979 C   0  0  0  0  0  0  0  0  0  0  0  0
   -1.7108    3.4233    1.8078 O   0  0  0  0  0  0  0  0  0  0  0  0
    0.4523    2.4449    2.0931 C   0  0  2  0  0  0  0  0  0  0  0  0
   -2.6158    4.5212    1.4906 C   0  0  2  0  0  0  0  0  0  0  0  0
    1.0756    2.3768    3.5790 C   0  0  2  0  0  0  0  0  0  0  0  0
    1.3152    2.3730    0.8267 C   0  0  0  0  0  0  0  0  0  0  0  0
   -4.0170    4.2424    2.1792 C   0  0  2  0  0  0  0  0  0  0  0  0
   -2.7257    4.6296   -0.0497 C   0  0  0  0  0  0  0  0  0  0  0  0
    2.4608    2.1365    3.5411 O   0  0  0  0  0  0  0  0  0  0  0  0
    0.4298    1.2327    4.5166 C   0  0  1  0  0  0  0  0  0  0  0  0
   -4.9689    5.2237    1.7114 O   0  0  0  0  0  0  0  0  0  0  0  0
   -3.9870    4.3701    3.7880 C   0  0  2  0  0  0  0  0  0  0  0  0
   -4.5663    2.8953    1.6554 C   0  0  0  0  0  0  0  0  0  0  0  0
   -1.4055    4.9218   -0.7480 C   0  0  0  0  0  0  0  0  0  0  0  0
    3.3602    3.1711    3.1848 C   0  0  1  0  0  0  0  0  0  0  0  0
    0.5383    1.3212    6.2338 C   0  0  2  0  0  0  0  0  0  0  0  0
   -1.0089    1.1529    4.0078 C   0  0  0  0  0  0  0  0  0  0  0  0
   -2.6609    4.5521    4.2794 O   0  0  0  0  0  0  0  0  0  0  0  0
   -4.6871    3.2253    4.5644 C   0  0  1  0  0  0  0  0  0  0  0  0
    3.3346    3.5262    1.8253 O   0  0  0  0  0  0  0  0  0  0  0  0
    3.3038    4.3614    4.1048 C   0  0  0  0  0  0  0  0  0  0  0  0
    1.9152    0.9766    6.7637 O   0  0  0  0  0  0  0  0  0  0  0  0
   -0.8326    0.5497    6.8951 C   0  0  1  0  0  0  0  0  0  0  0  0
   -4.1228    2.8833    5.9679 C   0  0  0  0  0  0  0  0  0  0  0  0
   -6.2048    3.4082    4.6694 C   0  0  0  0  0  0  0  0  0  0  0  0
    4.3703    4.4207    1.3907 C   0  0  1  0  0  0  0  0  0  0  0  0
    4.4395    5.3272    3.8201 C   0  0  1  0  0  0  0  0  0  0  0  0
    2.4008    1.2020    8.1657 C   0  0  2  0  0  0  0  0  0  0  0  0
   -0.5339    0.3560    8.3019 O   0  0  0  0  0  0  0  0  0  0  0  0
   -2.0349    1.6391    6.7478 C   0  0  0  0  0  0  0  0  0  0  0  0
   -1.1387   -0.8654    6.3132 C   0  0  0  0  0  0  0  0  0  0  0  0
   -4.1659    3.7188    6.8764 O   0  0  0  0  0  0  0  0  0  0  0  0
   -3.5352    1.4461    6.2607 C   0  0  2  0  0  0  0  0  0  0  0  0
    4.3036    5.6757    2.3107 C   0  0  2  0  0  0  0  0  0  0  0  0
    5.6746    3.6610    1.1675 C   0  0  0  0  0  0  0  0  0  0  0  0
    4.4001    6.4573    4.7210 O   0  0  0  0  0  0  0  0  0  0  0  0
    5.7849    4.6949    4.2448 C   0  0  0  0  0  0  0  0  0  0  0  0
    2.1433    2.4857    8.7582 O   0  0  0  0  0  0  0  0  0  0  0  0
    3.9649    0.8580    8.6133 C   0  0  2  0  0  0  0  0  0  0  0  0
   -1.4565   -0.3632    9.1152 C   0  0  0  0  0  0  0  0  0  0  0  0
   -3.9228    0.4831    5.1231 C   0  0  0  0  0  0  0  0  0  0  0  0
    2.9443    6.1846    2.1391 O   0  0  0  0  0  0  0  0  0  0  0  0
    5.3236    6.7732    1.9150 C   0  0  0  0  0  0  0  0  0  0  0  0
    3.2890    7.3339    4.7017 C   0  0  0  0  0  0  0  0  0  0  0  0
    3.0758    3.5416    8.4986 C   0  0  1  0  0  0  0  0  0  0  0  0
    4.1088    0.8606   10.0649 O   0  0  0  0  0  0  0  0  0  0  0  0
    5.0709    1.8278    8.1297 C   0  0  2  0  0  0  0  0  0  0  0  0
    5.1880    7.3962    0.5782 N   0  0  0  0  0  0  0  0  0  0  0  0
    4.5962    3.2411    8.5481 C   0  0  0  0  0  0  0  0  0  0  0  0
    2.6236    4.2183    7.2397 C   0  0  0  0  0  0  0  0  0  0  0  0
    5.6137    1.7122    6.7649 N   0  0  0  0  0  0  0  0  0  0  0  0
    3.8519    7.9731    0.3644 C   0  0  0  0  0  0  0  0  0  0  0  0
    6.1857    8.4700    0.5251 C   0  0  0  0  0  0  0  0  0  0  0  0
    4.6777    1.5021    5.6830 C   0  0  0  0  0  0  0  0  0  0  0  0
    6.8445    0.9616    6.5351 C   0  0  0  0  0  0  0  0  0  0  0  0
    4.3105    0.1238    5.1603 C   0  0  0  0  0  0  0  0  0  0  0  0
    3.8551   -0.9146    5.9628 C   0  0  0  0  0  0  0  0  0  0  0  0
    4.1709   -0.0576    3.7767 C   0  0  0  0  0  0  0  0  0  0  0  0
    3.2020   -2.0167    5.4628 C   0  0  0  0  0  0  0  0  0  0  0  0
    3.4782   -1.1451    3.2472 C   0  0  0  0  0  0  0  0  0  0  0  0
    3.0187   -2.1397    4.0988 C   0  0  0  0  0  0  0  0  0  0  0  0
    2.5076   -3.3782    3.6105 C   0  0  0  0  0  0  0  0  0  0  0  0
    1.7341   -3.5882    2.5099 N   0  0  0  0  0  0  0  0  0  0  0  0
    2.8949   -4.5735    4.1589 C   0  0  0  0  0  0  0  0  0  0  0  0
    1.6270   -4.9034    2.3449 N   0  0  0  0  0  0  0  0  0  0  0  0
    2.3880   -5.4761    3.2923 N   0  0  0  0  0  0  0  0  0  0  0  0
    2.7973   -6.8588    3.2165 C   0  0  0  0  0  0  0  0  0  0  0  0
    3.5347   -7.1351    1.9156 C   0  0  0  0  0  0  0  0  0  0  0  0
    4.0876   -8.5490    1.9011 C   0  0  0  0  0  0  0  0  0  0  0  0
    4.7707   -8.8317    0.5689 C   0  0  0  0  0  0  0  0  0  0  0  0
    5.3270  -10.2468    0.5513 C   0  0  0  0  0  0  0  0  0  0  0  0
    6.0149  -10.5566   -0.7721 C   0  0  0  0  0  0  0  0  0  0  0  0
    6.5561  -11.9666   -0.7726 C   0  0  0  0  0  0  0  0  0  0  0  0
    6.3670  -12.7852    0.1244 O   0  0  0  0  0  0  0  0  0  0  0  0
    7.2976  -12.2761   -1.8854 N   0  0  0  0  0  0  0  0  0  0  0  0
    7.7248  -13.6225   -1.9637 O   0  0  0  0  0  0  0  0  0  0  0  0
   -0.1984    1.6007    1.9075 H   0  0  0  0  0  0  0  0  0  0  0  0
   -2.2265    5.4753    1.8728 H   0  0  0  0  0  0  0  0  0  0  0  0
    0.8566    3.3106    4.1086 H   0  0  0  0  0  0  0  0  0  0  0  0
    1.6615    3.3573    0.4948 H   0  0  0  0  0  0  0  0  0  0  0  0
    0.7136    2.0266   -0.0220 H   0  0  0  0  0  0  0  0  0  0  0  0
    2.1418    1.6618    0.9263 H   0  0  0  0  0  0  0  0  0  0  0  0
   -3.4425    5.4136   -0.3163 H   0  0  0  0  0  0  0  0  0  0  0  0
   -3.0919    3.6884   -0.4723 H   0  0  0  0  0  0  0  0  0  0  0  0
    0.9263    0.2858    4.2704 H   0  0  0  0  0  0  0  0  0  0  0  0
   -4.6811    6.1013    2.0226 H   0  0  0  0  0  0  0  0  0  0  0  0
   -4.4991    5.3044    4.0557 H   0  0  0  0  0  0  0  0  0  0  0  0
   -4.7415    2.9228    0.5752 H   0  0  0  0  0  0  0  0  0  0  0  0
   -5.5530    2.6598    2.0622 H   0  0  0  0  0  0  0  0  0  0  0  0
   -3.8871    2.0634    1.8680 H   0  0  0  0  0  0  0  0  0  0  0  0
   -0.9231    5.8089   -0.3294 H   0  0  0  0  0  0  0  0  0  0  0  0
   -1.5762    5.0940   -1.8152 H   0  0  0  0  0  0  0  0  0  0  0  0
   -0.7207    4.0732   -0.6676 H   0  0  0  0  0  0  0  0  0  0  0  0
    4.3202    2.7045    3.3109 H   0  0  0  0  0  0  0  0  0  0  0  0
    0.4344    2.3802    6.4872 H   0  0  0  0  0  0  0  0  0  0  0  0
   -1.4522    2.1370    3.8810 H   0  0  0  0  0  0  0  0  0  0  0  0
   -1.6637    0.6419    4.6600 H   0  0  0  0  0  0  0  0  0  0  0  0
   -1.1145    0.5660    3.0915 H   0  0  0  0  0  0  0  0  0  0  0  0
   -2.0560    3.9944    3.7736 H   0  0  0  0  0  0  0  0  0  0  0  0
   -4.5489    2.3525    3.9532 H   0  0  0  0  0  0  0  0  0  0  0  0
    3.4273    4.0097    5.1041 H   0  0  0  0  0  0  0  0  0  0  0  0
    2.3219    4.8451    4.0620 H   0  0  0  0  0  0  0  0  0  0  0  0
   -6.4736    4.2425    5.3244 H   0  0  0  0  0  0  0  0  0  0  0  0
   -6.6618    2.5022    5.0847 H   0  0  0  0  0  0  0  0  0  0  0  0
   -6.6644    3.5880    3.6930 H   0  0  0  0  0  0  0  0  0  0  0  0
    4.0339    4.7252    0.3917 H   0  0  0  0  0  0  0  0  0  0  0  0
    1.8231    0.4961    8.7663 H   0  0  0  0  0  0  0  0  0  0  0  0
   -1.6521    2.4409    6.1040 H   0  0  0  0  0  0  0  0  0  0  0  0
   -2.1040    2.1409    7.7238 H   0  0  0  0  0  0  0  0  0  0  0  0
   -0.4684   -1.6301    6.7130 H   0  0  0  0  0  0  0  0  0  0  0  0
   -1.1013   -0.9915    5.2308 H   0  0  0  0  0  0  0  0  0  0  0  0
   -2.1524   -1.1766    6.5952 H   0  0  0  0  0  0  0  0  0  0  0  0
   -4.0991    1.0831    7.1301 H   0  0  0  0  0  0  0  0  0  0  0  0
    6.0156    3.0679    2.0166 H   0  0  0  0  0  0  0  0  0  0  0  0
    6.4811    4.3252    0.8459 H   0  0  0  0  0  0  0  0  0  0  0  0
    5.5228    2.9170    0.3711 H   0  0  0  0  0  0  0  0  0  0  0  0
    5.9800    3.7053    3.8469 H   0  0  0  0  0  0  0  0  0  0  0  0
    5.8157    4.5835    5.3368 H   0  0  0  0  0  0  0  0  0  0  0  0
    6.6355    5.3242    3.9775 H   0  0  0  0  0  0  0  0  0  0  0  0
    4.3088   -0.1409    8.4182 H   0  0  0  0  0  0  0  0  0  0  0  0
   -0.8751   -0.9485    9.8368 H   0  0  0  0  0  0  0  0  0  0  0  0
   -2.1001   -1.0715    8.5884 H   0  0  0  0  0  0  0  0  0  0  0  0
   -2.0810    0.3370    9.6725 H   0  0  0  0  0  0  0  0  0  0  0  0
   -3.5216    0.7661    4.1423 H   0  0  0  0  0  0  0  0  0  0  0  0
   -5.0126    0.4818    4.9903 H   0  0  0  0  0  0  0  0  0  0  0  0
   -3.6439   -0.5518    5.2967 H   0  0  0  0  0  0  0  0  0  0  0  0
    2.3756    5.4359    1.8842 H   0  0  0  0  0  0  0  0  0  0  0  0
    5.2613    7.5681    2.6679 H   0  0  0  0  0  0  0  0  0  0  0  0
    6.3220    6.3473    1.9920 H   0  0  0  0  0  0  0  0  0  0  0  0
    3.3913    8.0000    5.5642 H   0  0  0  0  0  0  0  0  0  0  0  0
    2.3389    6.8087    4.8048 H   0  0  0  0  0  0  0  0  0  0  0  0
    3.2988    7.9606    3.8089 H   0  0  0  0  0  0  0  0  0  0  0  0
    2.9065    4.2864    9.2880 H   0  0  0  0  0  0  0  0  0  0  0  0
    3.2088    1.0076   10.4455 H   0  0  0  0  0  0  0  0  0  0  0  0
    5.9592    1.6798    8.7702 H   0  0  0  0  0  0  0  0  0  0  0  0
    4.8727    3.3393    9.6131 H   0  0  0  0  0  0  0  0  0  0  0  0
    5.1893    4.0335    8.0683 H   0  0  0  0  0  0  0  0  0  0  0  0
    2.4138    3.4522    6.5008 H   0  0  0  0  0  0  0  0  0  0  0  0
    3.3564    4.9504    6.8937 H   0  0  0  0  0  0  0  0  0  0  0  0
    1.6644    4.7232    7.3739 H   0  0  0  0  0  0  0  0  0  0  0  0
    3.1281    7.1950    0.0957 H   0  0  0  0  0  0  0  0  0  0  0  0
    3.8501    8.6601   -0.4868 H   0  0  0  0  0  0  0  0  0  0  0  0
    3.4904    8.5277    1.2402 H   0  0  0  0  0  0  0  0  0  0  0  0
    7.1927    8.0683    0.6676 H   0  0  0  0  0  0  0  0  0  0  0  0
    6.0017    9.2286    1.2995 H   0  0  0  0  0  0  0  0  0  0  0  0
    6.1671    8.9658   -0.4485 H   0  0  0  0  0  0  0  0  0  0  0  0
    5.1557    2.0257    4.8631 H   0  0  0  0  0  0  0  0  0  0  0  0
    3.7696    2.0537    5.8880 H   0  0  0  0  0  0  0  0  0  0  0  0
    7.2847    1.2732    5.5740 H   0  0  0  0  0  0  0  0  0  0  0  0
    6.6764   -0.1180    6.4736 H   0  0  0  0  0  0  0  0  0  0  0  0
    7.6180    1.1496    7.2845 H   0  0  0  0  0  0  0  0  0  0  0  0
    3.8735   -0.9106    7.0201 H   0  0  0  0  0  0  0  0  0  0  0  0
    4.5182    0.6983    3.0807 H   0  0  0  0  0  0  0  0  0  0  0  0
    2.8146   -2.7555    6.1614 H   0  0  0  0  0  0  0  0  0  0  0  0
    3.3095   -1.1960    2.1758 H   0  0  0  0  0  0  0  0  0  0  0  0
    3.5487   -4.8264    4.9781 H   0  0  0  0  0  0  0  0  0  0  0  0
    1.9018   -7.4726    3.3333 H   0  0  0  0  0  0  0  0  0  0  0  0
    3.4607   -7.0515    4.0713 H   0  0  0  0  0  0  0  0  0  0  0  0
    4.3561   -6.4175    1.7850 H   0  0  0  0  0  0  0  0  0  0  0  0
    2.8544   -6.9892    1.0680 H   0  0  0  0  0  0  0  0  0  0  0  0
    3.2748   -9.2658    2.0683 H   0  0  0  0  0  0  0  0  0  0  0  0
    4.8056   -8.6732    2.7213 H   0  0  0  0  0  0  0  0  0  0  0  0
    5.5814   -8.1106    0.4085 H   0  0  0  0  0  0  0  0  0  0  0  0
    4.0531   -8.7018   -0.2505 H   0  0  0  0  0  0  0  0  0  0  0  0
    4.5150  -10.9637    0.7275 H   0  0  0  0  0  0  0  0  0  0  0  0
    6.0416  -10.3712    1.3749 H   0  0  0  0  0  0  0  0  0  0  0  0
    6.8436   -9.8588   -0.9380 H   0  0  0  0  0  0  0  0  0  0  0  0
    5.3053  -10.4540   -1.6015 H   0  0  0  0  0  0  0  0  0  0  0  0
    7.2522  -11.7561   -2.7546 H   0  0  0  0  0  0  0  0  0  0  0  0
    7.3915  -13.9952   -1.1159 H   0  0  0  0  0  0  0  0  0  0  0  0
  1  2  2  0  0  0  0
  2  3  1  0  0  0  0
  2  4  1  0  0  0  0
  3  5  1  0  0  0  0
  4  6  1  1  0  0  0
  4  7  1  0  0  0  0
  4 78  1  0  0  0  0
  5  8  1  1  0  0  0
  5  9  1  0  0  0  0
  5 79  1  0  0  0  0
  6 10  1  0  0  0  0
  6 11  1  1  0  0  0
  6 80  1  0  0  0  0
  7 81  1  0  0  0  0
  7 82  1  0  0  0  0
  7 83  1  0  0  0  0
  8 12  1  0  0  0  0
  8 13  1  1  0  0  0
  8 14  1  0  0  0  0
  9 15  1  0  0  0  0
  9 84  1  0  0  0  0
  9 85  1  0  0  0  0
 11 17  1  1  0  0  0
 11 18  1  0  0  0  0
 11 86  1  0  0  0  0
 12 87  1  0  0  0  0
 13 20  1  1  0  0  0
 13 19  1  0  0  0  0
 13 88  1  0  0  0  0
 14 89  1  0  0  0  0
 14 90  1  0  0  0  0
 14 91  1  0  0  0  0
 15 92  1  0  0  0  0
 15 93  1  0  0  0  0
 15 94  1  0  0  0  0
 16 21  1  0  0  0  0
 16 22  1  0  0  0  0
 16 10  1  0  0  0  0
 16 95  1  1  0  0  0
 17 23  1  0  0  0  0
 17 24  1  1  0  0  0
 17 96  1  0  0  0  0
 18 97  1  0  0  0  0
 18 98  1  0  0  0  0
 18 99  1  0  0  0  0
 19100  1  0  0  0  0
 20 25  1  0  0  0  0
 20 26  1  0  0  0  0
 20101  1  6  0  0  0
 21 27  1  0  0  0  0
 22 28  1  0  0  0  0
 22102  1  0  0  0  0
 22103  1  0  0  0  0
 24 30  1  1  0  0  0
 24 31  1  0  0  0  0
 24 32  1  0  0  0  0
 25 33  2  0  0  0  0
 25 34  1  0  0  0  0
 26104  1  0  0  0  0
 26105  1  0  0  0  0
 26106  1  0  0  0  0
 27 35  1  1  0  0  0
 27 36  1  0  0  0  0
 27107  1  0  0  0  0
 28 35  1  6  0  0  0
 28 38  1  0  0  0  0
 28 37  1  0  0  0  0
 29 23  1  0  0  0  0
 29 39  1  0  0  0  0
 29 40  1  1  0  0  0
 29108  1  0  0  0  0
 30 41  1  0  0  0  0
 31 34  1  0  0  0  0
 31109  1  0  0  0  0
 31110  1  0  0  0  0
 32111  1  0  0  0  0
 32112  1  0  0  0  0
 32113  1  0  0  0  0
 34 42  1  0  0  0  0
 34114  1  1  0  0  0
 35 44  1  0  0  0  0
 35 43  1  6  0  0  0
 36115  1  0  0  0  0
 36116  1  0  0  0  0
 36117  1  0  0  0  0
 37 45  1  0  0  0  0
 38118  1  0  0  0  0
 38119  1  0  0  0  0
 38120  1  0  0  0  0
 39 46  1  0  0  0  0
 40 48  1  6  0  0  0
 40 47  1  0  0  0  0
 40121  1  0  0  0  0
 41122  1  0  0  0  0
 41123  1  0  0  0  0
 41124  1  0  0  0  0
 42125  1  0  0  0  0
 42126  1  0  0  0  0
 42127  1  0  0  0  0
 43128  1  0  0  0  0
 44 49  1  0  0  0  0
 44129  1  0  0  0  0
 44130  1  0  0  0  0
 45131  1  0  0  0  0
 45132  1  0  0  0  0
 45133  1  0  0  0  0
 46 50  1  0  0  0  0
 46 51  1  0  0  0  0
 46134  1  1  0  0  0
 47135  1  0  0  0  0
 48 50  1  0  0  0  0
 48 52  1  0  0  0  0
 48136  1  1  0  0  0
 49 53  1  0  0  0  0
 49 54  1  0  0  0  0
 50137  1  0  0  0  0
 50138  1  0  0  0  0
 51139  1  0  0  0  0
 51140  1  0  0  0  0
 51141  1  0  0  0  0
 52 55  1  0  0  0  0
 52 56  1  0  0  0  0
 53142  1  0  0  0  0
 53143  1  0  0  0  0
 53144  1  0  0  0  0
 54145  1  0  0  0  0
 54146  1  0  0  0  0
 54147  1  0  0  0  0
 55 57  1  0  0  0  0
 55148  1  0  0  0  0
 55149  1  0  0  0  0
 56150  1  0  0  0  0
 56151  1  0  0  0  0
 56152  1  0  0  0  0
 57 58  2  0  0  0  0
 57 59  1  0  0  0  0
 58 60  1  0  0  0  0
 58153  1  0  0  0  0
 59 61  2  0  0  0  0
 59154  1  0  0  0  0
 60 62  2  0  0  0  0
 60155  1  0  0  0  0
 61 62  1  0  0  0  0
 61156  1  0  0  0  0
 62 63  1  0  0  0  0
 63 64  1  0  0  0  0
 63 65  2  0  0  0  0
 64 66  2  0  0  0  0
 65 67  1  0  0  0  0
 65157  1  0  0  0  0
 66 67  1  0  0  0  0
 67 68  1  0  0  0  0
 68 69  1  0  0  0  0
 68158  1  0  0  0  0
 68159  1  0  0  0  0
 69 70  1  0  0  0  0
 69160  1  0  0  0  0
 69161  1  0  0  0  0
 70 71  1  0  0  0  0
 70162  1  0  0  0  0
 70163  1  0  0  0  0
 71 72  1  0  0  0  0
 71164  1  0  0  0  0
 71165  1  0  0  0  0
 72 73  1  0  0  0  0
 72166  1  0  0  0  0
 72167  1  0  0  0  0
 73 74  1  0  0  0  0
 73168  1  0  0  0  0
 73169  1  0  0  0  0
 74 75  2  0  0  0  0
 74 76  1  0  0  0  0
 76 77  1  0  0  0  0
 76170  1  0  0  0  0
 77171  1  0  0  0  0
M  END
>  <Molecule Name>
2337358

>  <MolRegNo>
2337358

>  <m>
=

>  <Value>
33.3

>  <Unit>
nM

>  <Type>
IC50

>  <pValue>
7.48

>  <Ligand Efficiency>
0

>  <Binding Efficiency>
6.85

>  <Surface Efficiency>
0

>  <Assay Index>
977530

>  <Assay Category>


>  <Assay Organism>
Homo sapiens

>  <Target ID>
12697

>  <Target Name>
Histone deacetylase 1

>  <Target Organism>
Homo sapiens

>  <Target Description>
Target is a single protein chain

>  <Sequence Accession>
Q13547

>  <Reference>
Bioorg. Med. Chem. 23 (24), 7543-7564 (2015)

>  <Pubmed ID>
26585275

>  <DOI>
10.1016/j.bmc.2015.10.045

$$$$
2337335
 OpenBabel03252423443D

168172  0  0  0  0  0  0  0  0999 V2000
    0.0758    4.8883    2.0740 O   0  0  0  0  0  0  0  0  0  0  0  0
   -0.3718    3.7535    1.9882 C   0  0  0  0  0  0  0  0  0  0  0  0
   -1.7184    3.4806    1.7906 O   0  0  0  0  0  0  0  0  0  0  0  0
    0.4458    2.5045    2.0848 C   0  0  2  0  0  0  0  0  0  0  0  0
   -2.6285    4.5853    1.4804 C   0  0  2  0  0  0  0  0  0  0  0  0
    1.0620    2.4286    3.5787 C   0  0  2  0  0  0  0  0  0  0  0  0
    1.2846    2.4189    0.8082 C   0  0  0  0  0  0  0  0  0  0  0  0
   -4.0332    4.3076    2.1655 C   0  0  2  0  0  0  0  0  0  0  0  0
   -2.7422    4.6969   -0.0642 C   0  0  0  0  0  0  0  0  0  0  0  0
    2.4482    2.1735    3.5807 O   0  0  0  0  0  0  0  0  0  0  0  0
    0.3944    1.2925    4.5054 C   0  0  1  0  0  0  0  0  0  0  0  0
   -4.9783    5.2940    1.6937 O   0  0  0  0  0  0  0  0  0  0  0  0
   -4.0140    4.4288    3.7748 C   0  0  2  0  0  0  0  0  0  0  0  0
   -4.5885    2.9647    1.6384 C   0  0  0  0  0  0  0  0  0  0  0  0
   -1.4283    5.0091   -0.7686 C   0  0  0  0  0  0  0  0  0  0  0  0
    3.3584    3.1912    3.2034 C   0  0  1  0  0  0  0  0  0  0  0  0
    0.5058    1.3737    6.2159 C   0  0  2  0  0  0  0  0  0  0  0  0
   -1.0480    1.2345    3.9977 C   0  0  0  0  0  0  0  0  0  0  0  0
   -2.6965    4.6294    4.2823 O   0  0  0  0  0  0  0  0  0  0  0  0
   -4.7177    3.2815    4.5483 C   0  0  1  0  0  0  0  0  0  0  0  0
    3.3166    3.4684    1.8324 O   0  0  0  0  0  0  0  0  0  0  0  0
    3.3135    4.4195    4.0794 C   0  0  0  0  0  0  0  0  0  0  0  0
    1.8848    1.0242    6.7361 O   0  0  0  0  0  0  0  0  0  0  0  0
   -0.8646    0.6003    6.8717 C   0  0  1  0  0  0  0  0  0  0  0  0
   -4.1530    2.9370    5.9507 C   0  0  0  0  0  0  0  0  0  0  0  0
   -6.2345    3.4753    4.6621 C   0  0  0  0  0  0  0  0  0  0  0  0
    4.2898    4.3761    1.3183 C   0  0  1  0  0  0  0  0  0  0  0  0
    4.4064    5.4040    3.6917 C   0  0  1  0  0  0  0  0  0  0  0  0
    2.3442    1.2468    8.1446 C   0  0  2  0  0  0  0  0  0  0  0  0
   -0.5827    0.3942    8.2795 O   0  0  0  0  0  0  0  0  0  0  0  0
   -2.0692    1.6889    6.7311 C   0  0  0  0  0  0  0  0  0  0  0  0
   -1.1515   -0.8112    6.2739 C   0  0  0  0  0  0  0  0  0  0  0  0
   -4.1905    3.7749    6.8571 O   0  0  0  0  0  0  0  0  0  0  0  0
   -3.5708    1.4978    6.2459 C   0  0  2  0  0  0  0  0  0  0  0  0
    4.2298    5.6689    2.1641 C   0  0  2  0  0  0  0  0  0  0  0  0
    5.6086    3.6503    1.0573 C   0  0  0  0  0  0  0  0  0  0  0  0
    4.3621    6.5849    4.5263 O   0  0  0  0  0  0  0  0  0  0  0  0
    5.7788    4.8236    4.1063 C   0  0  0  0  0  0  0  0  0  0  0  0
    2.0551    2.5286    8.7263 O   0  0  0  0  0  0  0  0  0  0  0  0
    3.8892    0.9217    8.6183 C   0  0  2  0  0  0  0  0  0  0  0  0
   -1.5278   -0.3250    9.0687 C   0  0  0  0  0  0  0  0  0  0  0  0
   -3.9664    0.5275    5.1170 C   0  0  0  0  0  0  0  0  0  0  0  0
    2.8583    6.1571    2.0099 O   0  0  0  0  0  0  0  0  0  0  0  0
    5.2039    6.7554    1.6846 C   0  0  0  0  0  0  0  0  0  0  0  0
    3.2168    7.4179    4.4987 C   0  0  0  0  0  0  0  0  0  0  0  0
    2.9705    3.5981    8.4704 C   0  0  1  0  0  0  0  0  0  0  0  0
    3.9894    0.9096   10.0740 O   0  0  0  0  0  0  0  0  0  0  0  0
    4.9990    1.9116    8.1682 C   0  0  2  0  0  0  0  0  0  0  0  0
    5.0521    7.2445    0.2953 N   0  0  0  0  0  0  0  0  0  0  0  0
    4.4922    3.3213    8.5587 C   0  0  0  0  0  0  0  0  0  0  0  0
    2.5293    4.2714    7.2019 C   0  0  0  0  0  0  0  0  0  0  0  0
    5.5971    1.8069    6.8247 N   0  0  0  0  0  0  0  0  0  0  0  0
    3.7162    7.8126    0.0612 C   0  0  0  0  0  0  0  0  0  0  0  0
    6.0598    8.2899    0.0988 C   0  0  0  0  0  0  0  0  0  0  0  0
    4.7151    1.5830    5.7015 C   0  0  0  0  0  0  0  0  0  0  0  0
    6.8473    1.0738    6.6504 C   0  0  0  0  0  0  0  0  0  0  0  0
    4.3899    0.1969    5.1656 C   0  0  0  0  0  0  0  0  0  0  0  0
    3.9458   -0.8622    5.9451 C   0  0  0  0  0  0  0  0  0  0  0  0
    4.2917    0.0149    3.7806 C   0  0  0  0  0  0  0  0  0  0  0  0
    3.3344   -1.9857    5.4201 C   0  0  0  0  0  0  0  0  0  0  0  0
    3.6258   -1.0814    3.2300 C   0  0  0  0  0  0  0  0  0  0  0  0
    3.1397   -2.0900    4.0567 C   0  0  0  0  0  0  0  0  0  0  0  0
    2.4237   -3.2350    3.5750 C   0  0  0  0  0  0  0  0  0  0  0  0
    2.2154   -4.3541    4.3389 N   0  0  0  0  0  0  0  0  0  0  0  0
    1.7993   -3.3824    2.3617 C   0  0  0  0  0  0  0  0  0  0  0  0
    1.4791   -5.1969    3.6378 N   0  0  0  0  0  0  0  0  0  0  0  0
    1.2054   -4.5989    2.4692 N   0  0  0  0  0  0  0  0  0  0  0  0
    0.2833   -5.2211    1.5509 C   0  0  0  0  0  0  0  0  0  0  0  0
   -1.1134   -5.3048    2.1584 C   0  0  0  0  0  0  0  0  0  0  0  0
   -2.1292   -5.8270    1.1499 C   0  0  0  0  0  0  0  0  0  0  0  0
   -3.5195   -5.9332    1.7847 C   0  0  0  0  0  0  0  0  0  0  0  0
   -4.5480   -6.4352    0.8015 C   0  0  0  0  0  0  0  0  0  0  0  0
   -5.9284   -6.4983    1.4152 C   0  0  0  0  0  0  0  0  0  0  0  0
   -6.2037   -6.2000    2.5725 O   0  0  0  0  0  0  0  0  0  0  0  0
   -6.8989   -6.9278    0.5272 N   0  0  0  0  0  0  0  0  0  0  0  0
   -8.1976   -7.0901    1.0556 O   0  0  0  0  0  0  0  0  0  0  0  0
   -0.2135    1.6638    1.9069 H   0  0  0  0  0  0  0  0  0  0  0  0
   -2.2429    5.5394    1.8590 H   0  0  0  0  0  0  0  0  0  0  0  0
    0.8448    3.3652    4.1048 H   0  0  0  0  0  0  0  0  0  0  0  0
    1.6548    3.3952    0.4794 H   0  0  0  0  0  0  0  0  0  0  0  0
    0.6606    2.1015   -0.0371 H   0  0  0  0  0  0  0  0  0  0  0  0
    2.0877    1.6810    0.8890 H   0  0  0  0  0  0  0  0  0  0  0  0
   -3.4667    5.4752   -0.3270 H   0  0  0  0  0  0  0  0  0  0  0  0
   -3.0989    3.7534   -0.4918 H   0  0  0  0  0  0  0  0  0  0  0  0
    0.8802    0.3394    4.2563 H   0  0  0  0  0  0  0  0  0  0  0  0
   -4.6989    6.1678    2.0230 H   0  0  0  0  0  0  0  0  0  0  0  0
   -4.5385    5.3579    4.0374 H   0  0  0  0  0  0  0  0  0  0  0  0
   -4.7557    2.9918    0.5570 H   0  0  0  0  0  0  0  0  0  0  0  0
   -5.5804    2.7402    2.0395 H   0  0  0  0  0  0  0  0  0  0  0  0
   -3.9177    2.1279    1.8575 H   0  0  0  0  0  0  0  0  0  0  0  0
   -0.9508    5.8974   -0.3462 H   0  0  0  0  0  0  0  0  0  0  0  0
   -1.6088    5.1915   -1.8327 H   0  0  0  0  0  0  0  0  0  0  0  0
   -0.7350    4.1659   -0.7023 H   0  0  0  0  0  0  0  0  0  0  0  0
    4.3217    2.7339    3.3464 H   0  0  0  0  0  0  0  0  0  0  0  0
    0.4020    2.4311    6.4761 H   0  0  0  0  0  0  0  0  0  0  0  0
   -1.4823    2.2250    3.8848 H   0  0  0  0  0  0  0  0  0  0  0  0
   -1.7052    0.7156    4.6427 H   0  0  0  0  0  0  0  0  0  0  0  0
   -1.1609    0.6586    3.0761 H   0  0  0  0  0  0  0  0  0  0  0  0
   -2.0620    4.1317    3.7507 H   0  0  0  0  0  0  0  0  0  0  0  0
   -4.5887    2.4059    3.9372 H   0  0  0  0  0  0  0  0  0  0  0  0
    3.5051    4.1198    5.0900 H   0  0  0  0  0  0  0  0  0  0  0  0
    2.3186    4.8745    4.0686 H   0  0  0  0  0  0  0  0  0  0  0  0
   -6.4933    4.3106    5.3203 H   0  0  0  0  0  0  0  0  0  0  0  0
   -6.6966    2.5729    5.0797 H   0  0  0  0  0  0  0  0  0  0  0  0
   -6.6984    3.6599    3.6886 H   0  0  0  0  0  0  0  0  0  0  0  0
    3.9031    4.6194    0.3217 H   0  0  0  0  0  0  0  0  0  0  0  0
    1.7636    0.5325    8.7325 H   0  0  0  0  0  0  0  0  0  0  0  0
   -1.6863    2.5003    6.0994 H   0  0  0  0  0  0  0  0  0  0  0  0
   -2.1409    2.1813    7.7121 H   0  0  0  0  0  0  0  0  0  0  0  0
   -0.4766   -1.5706    6.6770 H   0  0  0  0  0  0  0  0  0  0  0  0
   -1.0967   -0.9254    5.1910 H   0  0  0  0  0  0  0  0  0  0  0  0
   -2.1643   -1.1363    6.5400 H   0  0  0  0  0  0  0  0  0  0  0  0
   -4.1329    1.1414    7.1188 H   0  0  0  0  0  0  0  0  0  0  0  0
    6.0351    3.1518    1.9269 H   0  0  0  0  0  0  0  0  0  0  0  0
    6.3576    4.3120    0.6199 H   0  0  0  0  0  0  0  0  0  0  0  0
    5.4316    2.8320    0.3456 H   0  0  0  0  0  0  0  0  0  0  0  0
    5.9820    3.8198    3.7482 H   0  0  0  0  0  0  0  0  0  0  0  0
    5.8444    4.7628    5.2012 H   0  0  0  0  0  0  0  0  0  0  0  0
    6.6051    5.4613    3.7867 H   0  0  0  0  0  0  0  0  0  0  0  0
    4.2514   -0.0696    8.4217 H   0  0  0  0  0  0  0  0  0  0  0  0
   -0.9706   -0.8690    9.8392 H   0  0  0  0  0  0  0  0  0  0  0  0
   -2.1159   -1.0724    8.5309 H   0  0  0  0  0  0  0  0  0  0  0  0
   -2.2063    0.3714    9.5644 H   0  0  0  0  0  0  0  0  0  0  0  0
   -3.5730    0.8043    4.1337 H   0  0  0  0  0  0  0  0  0  0  0  0
   -5.0578    0.5260    4.9902 H   0  0  0  0  0  0  0  0  0  0  0  0
   -3.6819   -0.5059    5.2959 H   0  0  0  0  0  0  0  0  0  0  0  0
    2.2642    5.3928    1.8587 H   0  0  0  0  0  0  0  0  0  0  0  0
    5.1370    7.6145    2.3626 H   0  0  0  0  0  0  0  0  0  0  0  0
    6.2202    6.3601    1.7849 H   0  0  0  0  0  0  0  0  0  0  0  0
    3.3498    8.1733    5.2787 H   0  0  0  0  0  0  0  0  0  0  0  0
    2.3006    6.8707    4.7254 H   0  0  0  0  0  0  0  0  0  0  0  0
    3.1341    7.9520    3.5507 H   0  0  0  0  0  0  0  0  0  0  0  0
    2.7737    4.3412    9.2555 H   0  0  0  0  0  0  0  0  0  0  0  0
    3.1316    1.1577   10.4308 H   0  0  0  0  0  0  0  0  0  0  0  0
    5.8658    1.7801    8.8402 H   0  0  0  0  0  0  0  0  0  0  0  0
    4.7415    3.4331    9.6292 H   0  0  0  0  0  0  0  0  0  0  0  0
    5.0826    4.1182    8.0838 H   0  0  0  0  0  0  0  0  0  0  0  0
    2.3741    3.5156    6.4383 H   0  0  0  0  0  0  0  0  0  0  0  0
    3.2396    5.0393    6.8869 H   0  0  0  0  0  0  0  0  0  0  0  0
    1.5483    4.7383    7.3219 H   0  0  0  0  0  0  0  0  0  0  0  0
    2.9844    7.0182   -0.1192 H   0  0  0  0  0  0  0  0  0  0  0  0
    3.6973    8.4177   -0.8494 H   0  0  0  0  0  0  0  0  0  0  0  0
    3.3748    8.4485    0.8884 H   0  0  0  0  0  0  0  0  0  0  0  0
    7.0632    7.8717    0.2324 H   0  0  0  0  0  0  0  0  0  0  0  0
    5.9304    9.1159    0.8094 H   0  0  0  0  0  0  0  0  0  0  0  0
    6.0110    8.6890   -0.9179 H   0  0  0  0  0  0  0  0  0  0  0  0
    5.2262    2.1133    4.9018 H   0  0  0  0  0  0  0  0  0  0  0  0
    3.7900    2.1230    5.8634 H   0  0  0  0  0  0  0  0  0  0  0  0
    7.3198    1.3802    5.7028 H   0  0  0  0  0  0  0  0  0  0  0  0
    6.6974   -0.0085    6.5977 H   0  0  0  0  0  0  0  0  0  0  0  0
    7.5885    1.2847    7.4259 H   0  0  0  0  0  0  0  0  0  0  0  0
    3.9514   -0.8713    7.0047 H   0  0  0  0  0  0  0  0  0  0  0  0
    4.6410    0.7773    3.0949 H   0  0  0  0  0  0  0  0  0  0  0  0
    2.9520   -2.7359    6.1099 H   0  0  0  0  0  0  0  0  0  0  0  0
    3.4623   -1.0957    2.1582 H   0  0  0  0  0  0  0  0  0  0  0  0
    1.6970   -2.7395    1.4996 H   0  0  0  0  0  0  0  0  0  0  0  0
    0.6828   -6.2143    1.3211 H   0  0  0  0  0  0  0  0  0  0  0  0
    0.2778   -4.6285    0.6297 H   0  0  0  0  0  0  0  0  0  0  0  0
   -1.4230   -4.3157    2.5214 H   0  0  0  0  0  0  0  0  0  0  0  0
   -1.0963   -5.9651    3.0358 H   0  0  0  0  0  0  0  0  0  0  0  0
   -1.8154   -6.8124    0.7885 H   0  0  0  0  0  0  0  0  0  0  0  0
   -2.1665   -5.1563    0.2831 H   0  0  0  0  0  0  0  0  0  0  0  0
   -3.8142   -4.9431    2.1682 H   0  0  0  0  0  0  0  0  0  0  0  0
   -3.4685   -6.5950    2.6595 H   0  0  0  0  0  0  0  0  0  0  0  0
   -4.2730   -7.4373    0.4535 H   0  0  0  0  0  0  0  0  0  0  0  0
   -4.5940   -5.7685   -0.0699 H   0  0  0  0  0  0  0  0  0  0  0  0
   -6.7036   -7.3526   -0.3697 H   0  0  0  0  0  0  0  0  0  0  0  0
   -8.0798   -6.8093    1.9903 H   0  0  0  0  0  0  0  0  0  0  0  0
  1  2  2  0  0  0  0
  2  3  1  0  0  0  0
  2  4  1  0  0  0  0
  3  5  1  0  0  0  0
  4  6  1  1  0  0  0
  4  7  1  0  0  0  0
  4 77  1  0  0  0  0
  5  8  1  1  0  0  0
  5  9  1  0  0  0  0
  5 78  1  0  0  0  0
  6 10  1  0  0  0  0
  6 11  1  1  0  0  0
  6 79  1  0  0  0  0
  7 80  1  0  0  0  0
  7 81  1  0  0  0  0
  7 82  1  0  0  0  0
  8 12  1  0  0  0  0
  8 13  1  1  0  0  0
  8 14  1  0  0  0  0
  9 15  1  0  0  0  0
  9 83  1  0  0  0  0
  9 84  1  0  0  0  0
 11 17  1  1  0  0  0
 11 18  1  0  0  0  0
 11 85  1  0  0  0  0
 12 86  1  0  0  0  0
 13 20  1  1  0  0  0
 13 19  1  0  0  0  0
 13 87  1  0  0  0  0
 14 88  1  0  0  0  0
 14 89  1  0  0  0  0
 14 90  1  0  0  0  0
 15 91  1  0  0  0  0
 15 92  1  0  0  0  0
 15 93  1  0  0  0  0
 16 21  1  0  0  0  0
 16 22  1  0  0  0  0
 16 10  1  0  0  0  0
 16 94  1  1  0  0  0
 17 23  1  0  0  0  0
 17 24  1  1  0  0  0
 17 95  1  0  0  0  0
 18 96  1  0  0  0  0
 18 97  1  0  0  0  0
 18 98  1  0  0  0  0
 19 99  1  0  0  0  0
 20 25  1  0  0  0  0
 20 26  1  0  0  0  0
 20100  1  6  0  0  0
 21 27  1  0  0  0  0
 22 28  1  0  0  0  0
 22101  1  0  0  0  0
 22102  1  0  0  0  0
 24 30  1  1  0  0  0
 24 31  1  0  0  0  0
 24 32  1  0  0  0  0
 25 33  2  0  0  0  0
 25 34  1  0  0  0  0
 26103  1  0  0  0  0
 26104  1  0  0  0  0
 26105  1  0  0  0  0
 27 35  1  1  0  0  0
 27 36  1  0  0  0  0
 27106  1  0  0  0  0
 28 35  1  6  0  0  0
 28 38  1  0  0  0  0
 28 37  1  0  0  0  0
 29 23  1  0  0  0  0
 29 39  1  0  0  0  0
 29 40  1  1  0  0  0
 29107  1  0  0  0  0
 30 41  1  0  0  0  0
 31 34  1  0  0  0  0
 31108  1  0  0  0  0
 31109  1  0  0  0  0
 32110  1  0  0  0  0
 32111  1  0  0  0  0
 32112  1  0  0  0  0
 34 42  1  0  0  0  0
 34113  1  1  0  0  0
 35 44  1  0  0  0  0
 35 43  1  6  0  0  0
 36114  1  0  0  0  0
 36115  1  0  0  0  0
 36116  1  0  0  0  0
 37 45  1  0  0  0  0
 38117  1  0  0  0  0
 38118  1  0  0  0  0
 38119  1  0  0  0  0
 39 46  1  0  0  0  0
 40 48  1  6  0  0  0
 40 47  1  0  0  0  0
 40120  1  0  0  0  0
 41121  1  0  0  0  0
 41122  1  0  0  0  0
 41123  1  0  0  0  0
 42124  1  0  0  0  0
 42125  1  0  0  0  0
 42126  1  0  0  0  0
 43127  1  0  0  0  0
 44 49  1  0  0  0  0
 44128  1  0  0  0  0
 44129  1  0  0  0  0
 45130  1  0  0  0  0
 45131  1  0  0  0  0
 45132  1  0  0  0  0
 46 50  1  0  0  0  0
 46 51  1  0  0  0  0
 46133  1  1  0  0  0
 47134  1  0  0  0  0
 48 50  1  0  0  0  0
 48 52  1  0  0  0  0
 48135  1  1  0  0  0
 49 53  1  0  0  0  0
 49 54  1  0  0  0  0
 50136  1  0  0  0  0
 50137  1  0  0  0  0
 51138  1  0  0  0  0
 51139  1  0  0  0  0
 51140  1  0  0  0  0
 52 55  1  0  0  0  0
 52 56  1  0  0  0  0
 53141  1  0  0  0  0
 53142  1  0  0  0  0
 53143  1  0  0  0  0
 54144  1  0  0  0  0
 54145  1  0  0  0  0
 54146  1  0  0  0  0
 55 57  1  0  0  0  0
 55147  1  0  0  0  0
 55148  1  0  0  0  0
 56149  1  0  0  0  0
 56150  1  0  0  0  0
 56151  1  0  0  0  0
 57 58  2  0  0  0  0
 57 59  1  0  0  0  0
 58 60  1  0  0  0  0
 58152  1  0  0  0  0
 59 61  2  0  0  0  0
 59153  1  0  0  0  0
 60 62  2  0  0  0  0
 60154  1  0  0  0  0
 61 62  1  0  0  0  0
 61155  1  0  0  0  0
 62 63  1  0  0  0  0
 63 64  1  0  0  0  0
 63 65  2  0  0  0  0
 64 66  2  0  0  0  0
 65 67  1  0  0  0  0
 65156  1  0  0  0  0
 66 67  1  0  0  0  0
 67 68  1  0  0  0  0
 68 69  1  0  0  0  0
 68157  1  0  0  0  0
 68158  1  0  0  0  0
 69 70  1  0  0  0  0
 69159  1  0  0  0  0
 69160  1  0  0  0  0
 70 71  1  0  0  0  0
 70161  1  0  0  0  0
 70162  1  0  0  0  0
 71 72  1  0  0  0  0
 71163  1  0  0  0  0
 71164  1  0  0  0  0
 72 73  1  0  0  0  0
 72165  1  0  0  0  0
 72166  1  0  0  0  0
 73 74  2  0  0  0  0
 73 75  1  0  0  0  0
 75 76  1  0  0  0  0
 75167  1  0  0  0  0
 76168  1  0  0  0  0
M  END
>  <Molecule Name>
2337335

>  <MolRegNo>
2337335

>  <m>
=

>  <Value>
201

>  <Unit>
nM

>  <Type>
IC50

>  <pValue>
6.7

>  <Ligand Efficiency>
0

>  <Binding Efficiency>
6.22

>  <Surface Efficiency>
0

>  <Assay Index>
977530

>  <Assay Category>


>  <Assay Organism>
Homo sapiens

>  <Target ID>
12697

>  <Target Name>
Histone deacetylase 1

>  <Target Organism>
Homo sapiens

>  <Target Description>
Target is a single protein chain

>  <Sequence Accession>
Q13547

>  <Reference>
Bioorg. Med. Chem. 23 (24), 7543-7564 (2015)

>  <Pubmed ID>
26585275

>  <DOI>
10.1016/j.bmc.2015.10.045

$$$$
2337321
 OpenBabel03252423443D

171175  0  0  0  0  0  0  0  0999 V2000
    0.7082   -0.3007   -0.0877 O   0  0  0  0  0  0  0  0  0  0  0  0
    1.9291   -0.2327   -0.0776 C   0  0  0  0  0  0  0  0  0  0  0  0
    2.7410   -1.2945   -0.3363 O   0  0  0  0  0  0  0  0  0  0  0  0
    2.7184    1.0289    0.2433 C   0  0  2  0  0  0  0  0  0  0  0  0
    2.0730   -2.5153   -0.7693 C   0  0  2  0  0  0  0  0  0  0  0  0
    2.8339    1.1730    1.8545 C   0  0  2  0  0  0  0  0  0  0  0  0
    2.1208    2.0962   -0.6988 C   0  0  0  0  0  0  0  0  0  0  0  0
    2.8752   -3.7522   -0.2064 C   0  0  2  0  0  0  0  0  0  0  0  0
    1.9602   -2.5160   -2.3160 C   0  0  0  0  0  0  0  0  0  0  0  0
    2.1642    2.3088    2.4292 O   0  0  0  0  0  0  0  0  0  0  0  0
    4.3442    1.1132    2.3988 C   0  0  1  0  0  0  0  0  0  0  0  0
    2.2645   -4.9602   -0.7021 O   0  0  0  0  0  0  0  0  0  0  0  0
    2.8580   -3.8562    1.3991 C   0  0  2  0  0  0  0  0  0  0  0  0
    4.2938   -3.7305   -0.8161 C   0  0  0  0  0  0  0  0  0  0  0  0
    1.1399   -1.3706   -2.9014 C   0  0  0  0  0  0  0  0  0  0  0  0
    0.7999    2.4640    2.0479 C   0  0  2  0  0  0  0  0  0  0  0  0
    4.6528    1.1526    4.0023 C   0  0  2  0  0  0  0  0  0  0  0  0
    5.0535   -0.0467    1.7144 C   0  0  0  0  0  0  0  0  0  0  0  0
    2.4044   -2.6523    2.0231 O   0  0  0  0  0  0  0  0  0  0  0  0
    4.1991   -4.2925    2.0328 C   0  0  1  0  0  0  0  0  0  0  0  0
    0.2242    3.6917    2.3847 O   0  0  0  0  0  0  0  0  0  0  0  0
   -0.1178    1.3002    2.3004 C   0  0  0  0  0  0  0  0  0  0  0  0
    5.6988    2.1462    4.2799 O   0  0  0  0  0  0  0  0  0  0  0  0
    5.2689   -0.1894    4.7642 C   0  0  1  0  0  0  0  0  0  0  0  0
    4.3841   -3.8865    3.4984 C   0  0  0  0  0  0  0  0  0  0  0  0
    4.4707   -5.7919    1.9222 C   0  0  0  0  0  0  0  0  0  0  0  0
   -0.4430    3.8334    3.6259 C   0  0  2  0  0  0  0  0  0  0  0  0
   -0.6164    1.1943    3.7245 C   0  0  2  0  0  0  0  0  0  0  0  0
    5.3601    3.5192    4.3896 C   0  0  2  0  0  0  0  0  0  0  0  0
    5.1710   -0.0323    6.2242 O   0  0  0  0  0  0  0  0  0  0  0  0
    4.6318   -1.5656    4.3753 C   0  0  0  0  0  0  0  0  0  0  0  0
    6.8163   -0.1939    4.6684 C   0  0  0  0  0  0  0  0  0  0  0  0
    3.6871   -4.3984    4.3809 O   0  0  0  0  0  0  0  0  0  0  0  0
    5.4379   -2.8049    3.8700 C   0  0  2  0  0  0  0  0  0  0  0  0
   -1.2592    2.5849    4.1764 C   0  0  1  0  0  0  0  0  0  0  0  0
   -1.2180    5.1303    3.3649 C   0  0  0  0  0  0  0  0  0  0  0  0
    0.4985    1.0241    4.6531 O   0  0  0  0  0  0  0  0  0  0  0  0
   -1.4856   -0.0803    3.7505 C   0  0  0  0  0  0  0  0  0  0  0  0
    5.3097    4.1653    3.1107 O   0  0  0  0  0  0  0  0  0  0  0  0
    6.3269    4.3427    5.3120 C   0  0  2  0  0  0  0  0  0  0  0  0
    3.9215   -0.0506    6.8834 C   0  0  0  0  0  0  0  0  0  0  0  0
    6.5292   -2.6714    2.8012 C   0  0  0  0  0  0  0  0  0  0  0  0
   -0.9928    2.6333    5.6552 O   0  0  0  0  0  0  0  0  0  0  0  0
   -2.8151    2.7481    4.2605 C   0  0  0  0  0  0  0  0  0  0  0  0
    1.1749   -0.2117    4.7793 C   0  0  0  0  0  0  0  0  0  0  0  0
    6.5695    4.3646    2.4571 C   0  0  1  0  0  0  0  0  0  0  0  0
    5.7731    5.6746    5.4947 O   0  0  0  0  0  0  0  0  0  0  0  0
    7.7730    4.5012    4.7260 C   0  0  2  0  0  0  0  0  0  0  0  0
   -3.8586    2.9623    3.2119 N   0  0  0  0  0  0  0  0  0  0  0  0
    7.5935    5.1069    3.3175 C   0  0  0  0  0  0  0  0  0  0  0  0
    7.1527    3.0941    1.8540 C   0  0  0  0  0  0  0  0  0  0  0  0
    8.5837    3.2549    4.8233 N   0  0  0  0  0  0  0  0  0  0  0  0
   -3.9791    1.7744    2.3557 C   0  0  0  0  0  0  0  0  0  0  0  0
   -5.1064    3.1841    3.9952 C   0  0  0  0  0  0  0  0  0  0  0  0
    8.9799    2.9876    6.2135 C   0  0  0  0  0  0  0  0  0  0  0  0
    9.7819    3.1876    3.9890 C   0  0  0  0  0  0  0  0  0  0  0  0
   -5.1279    1.6090    1.3796 C   0  0  0  0  0  0  0  0  0  0  0  0
   -6.0764    2.5808    1.0538 C   0  0  0  0  0  0  0  0  0  0  0  0
   -5.2892    0.3242    0.8378 C   0  0  0  0  0  0  0  0  0  0  0  0
   -7.2874    2.2104    0.4541 C   0  0  0  0  0  0  0  0  0  0  0  0
   -6.4643   -0.0318    0.1873 C   0  0  0  0  0  0  0  0  0  0  0  0
   -7.5177    0.8814    0.0846 C   0  0  0  0  0  0  0  0  0  0  0  0
   -8.8291    0.4436   -0.3463 C   0  0  0  0  0  0  0  0  0  0  0  0
   -9.9651    1.2141   -0.3431 N   0  0  0  0  0  0  0  0  0  0  0  0
   -9.1504   -0.8228   -0.7772 C   0  0  0  0  0  0  0  0  0  0  0  0
  -10.9647    0.4807   -0.8224 N   0  0  0  0  0  0  0  0  0  0  0  0
  -10.4592   -0.7227   -1.1313 N   0  0  0  0  0  0  0  0  0  0  0  0
  -11.1775   -1.6480   -1.9749 C   0  0  0  0  0  0  0  0  0  0  0  0
  -11.5483   -2.9435   -1.2675 C   0  0  0  0  0  0  0  0  0  0  0  0
  -12.1351   -3.9340   -2.2673 C   0  0  0  0  0  0  0  0  0  0  0  0
  -12.5206   -5.2260   -1.6004 C   0  0  0  0  0  0  0  0  0  0  0  0
  -13.1240   -6.2092   -2.6194 C   0  0  0  0  0  0  0  0  0  0  0  0
  -13.5272   -7.5408   -1.9618 C   0  0  0  0  0  0  0  0  0  0  0  0
  -14.1521   -8.4703   -2.9764 C   0  0  0  0  0  0  0  0  0  0  0  0
  -14.2168   -8.2591   -4.1853 O   0  0  0  0  0  0  0  0  0  0  0  0
  -14.6551   -9.6224   -2.4151 N   0  0  0  0  0  0  0  0  0  0  0  0
  -15.1254  -10.5820   -3.3450 O   0  0  0  0  0  0  0  0  0  0  0  0
    3.7150    0.9149   -0.1784 H   0  0  0  0  0  0  0  0  0  0  0  0
    1.0575   -2.5753   -0.3558 H   0  0  0  0  0  0  0  0  0  0  0  0
    2.3806    0.2817    2.2949 H   0  0  0  0  0  0  0  0  0  0  0  0
    1.0260    2.0496   -0.7830 H   0  0  0  0  0  0  0  0  0  0  0  0
    2.4428    1.8920   -1.7290 H   0  0  0  0  0  0  0  0  0  0  0  0
    2.4336    3.1115   -0.4476 H   0  0  0  0  0  0  0  0  0  0  0  0
    1.5135   -3.4592   -2.6495 H   0  0  0  0  0  0  0  0  0  0  0  0
    2.9509   -2.4361   -2.7716 H   0  0  0  0  0  0  0  0  0  0  0  0
    4.7655    2.0330    2.0073 H   0  0  0  0  0  0  0  0  0  0  0  0
    1.3511   -5.0017   -0.3633 H   0  0  0  0  0  0  0  0  0  0  0  0
    2.1035   -4.6014    1.6818 H   0  0  0  0  0  0  0  0  0  0  0  0
    4.2651   -3.8094   -1.9071 H   0  0  0  0  0  0  0  0  0  0  0  0
    4.8888   -4.5980   -0.5213 H   0  0  0  0  0  0  0  0  0  0  0  0
    4.8391   -2.8187   -0.5510 H   0  0  0  0  0  0  0  0  0  0  0  0
    0.1443   -1.3194   -2.4526 H   0  0  0  0  0  0  0  0  0  0  0  0
    1.0157   -1.5128   -3.9800 H   0  0  0  0  0  0  0  0  0  0  0  0
    1.6448   -0.4096   -2.7634 H   0  0  0  0  0  0  0  0  0  0  0  0
    0.8040    2.5904    0.9867 H   0  0  0  0  0  0  0  0  0  0  0  0
    3.7547    1.4793    4.5325 H   0  0  0  0  0  0  0  0  0  0  0  0
    4.5028   -0.9721    1.8730 H   0  0  0  0  0  0  0  0  0  0  0  0
    6.0793   -0.1401    2.0481 H   0  0  0  0  0  0  0  0  0  0  0  0
    5.1434    0.0495    0.6346 H   0  0  0  0  0  0  0  0  0  0  0  0
    2.6118   -1.9101    1.4402 H   0  0  0  0  0  0  0  0  0  0  0  0
    4.9801   -3.8012    1.4722 H   0  0  0  0  0  0  0  0  0  0  0  0
    0.3730    0.3657    2.0482 H   0  0  0  0  0  0  0  0  0  0  0  0
   -0.9724    1.4057    1.6239 H   0  0  0  0  0  0  0  0  0  0  0  0
    3.8206   -6.3710    2.5853 H   0  0  0  0  0  0  0  0  0  0  0  0
    5.5068   -5.9998    2.2154 H   0  0  0  0  0  0  0  0  0  0  0  0
    4.3320   -6.1640    0.9046 H   0  0  0  0  0  0  0  0  0  0  0  0
    0.3348    4.0761    4.3594 H   0  0  0  0  0  0  0  0  0  0  0  0
    4.3601    3.6059    4.8332 H   0  0  0  0  0  0  0  0  0  0  0  0
    3.7722   -1.3902    3.7287 H   0  0  0  0  0  0  0  0  0  0  0  0
    4.1582   -1.9739    5.2746 H   0  0  0  0  0  0  0  0  0  0  0  0
    7.2614    0.5558    5.3349 H   0  0  0  0  0  0  0  0  0  0  0  0
    7.1933    0.0186    3.6694 H   0  0  0  0  0  0  0  0  0  0  0  0
    7.2367   -1.1400    5.0253 H   0  0  0  0  0  0  0  0  0  0  0  0
    5.9633   -3.2221    4.7413 H   0  0  0  0  0  0  0  0  0  0  0  0
   -1.8942    5.0190    2.5070 H   0  0  0  0  0  0  0  0  0  0  0  0
   -0.5140    5.9204    3.0571 H   0  0  0  0  0  0  0  0  0  0  0  0
   -1.7671    5.4923    4.2324 H   0  0  0  0  0  0  0  0  0  0  0  0
   -0.9328   -0.9319    3.3243 H   0  0  0  0  0  0  0  0  0  0  0  0
   -2.3484   -0.0290    3.0966 H   0  0  0  0  0  0  0  0  0  0  0  0
   -1.7747   -0.3815    4.7573 H   0  0  0  0  0  0  0  0  0  0  0  0
    6.3642    3.9084    6.3138 H   0  0  0  0  0  0  0  0  0  0  0  0
    4.1066    0.1107    7.9516 H   0  0  0  0  0  0  0  0  0  0  0  0
    3.4145   -1.0125    6.8067 H   0  0  0  0  0  0  0  0  0  0  0  0
    3.2849    0.7632    6.5337 H   0  0  0  0  0  0  0  0  0  0  0  0
    6.1662   -2.3003    1.8391 H   0  0  0  0  0  0  0  0  0  0  0  0
    6.9708   -3.6522    2.5943 H   0  0  0  0  0  0  0  0  0  0  0  0
    7.3640   -2.0338    3.0860 H   0  0  0  0  0  0  0  0  0  0  0  0
   -0.3468    1.9161    5.8146 H   0  0  0  0  0  0  0  0  0  0  0  0
   -2.9341    3.6175    4.9260 H   0  0  0  0  0  0  0  0  0  0  0  0
   -3.1549    1.9064    4.8877 H   0  0  0  0  0  0  0  0  0  0  0  0
    1.1809   -0.4887    5.8374 H   0  0  0  0  0  0  0  0  0  0  0  0
    2.2062   -0.0527    4.4860 H   0  0  0  0  0  0  0  0  0  0  0  0
    0.7965   -1.0489    4.1988 H   0  0  0  0  0  0  0  0  0  0  0  0
    6.3326    5.0206    1.6108 H   0  0  0  0  0  0  0  0  0  0  0  0
    5.2948    5.8882    4.6683 H   0  0  0  0  0  0  0  0  0  0  0  0
    8.2994    5.2802    5.3002 H   0  0  0  0  0  0  0  0  0  0  0  0
    7.2373    6.1408    3.4417 H   0  0  0  0  0  0  0  0  0  0  0  0
    8.5480    5.2122    2.7890 H   0  0  0  0  0  0  0  0  0  0  0  0
    7.4004    2.3484    2.6107 H   0  0  0  0  0  0  0  0  0  0  0  0
    8.0573    3.3191    1.2849 H   0  0  0  0  0  0  0  0  0  0  0  0
    6.4552    2.6256    1.1609 H   0  0  0  0  0  0  0  0  0  0  0  0
   -4.0752    0.9104    3.0237 H   0  0  0  0  0  0  0  0  0  0  0  0
   -3.0643    1.6766    1.7669 H   0  0  0  0  0  0  0  0  0  0  0  0
   -5.0038    4.0845    4.6131 H   0  0  0  0  0  0  0  0  0  0  0  0
   -5.3343    2.3384    4.6572 H   0  0  0  0  0  0  0  0  0  0  0  0
   -5.9934    3.3693    3.3930 H   0  0  0  0  0  0  0  0  0  0  0  0
    9.5041    2.0274    6.2906 H   0  0  0  0  0  0  0  0  0  0  0  0
    8.1158    2.9040    6.8741 H   0  0  0  0  0  0  0  0  0  0  0  0
    9.6426    3.7673    6.6075 H   0  0  0  0  0  0  0  0  0  0  0  0
   10.2873    2.2244    4.1423 H   0  0  0  0  0  0  0  0  0  0  0  0
   10.4975    3.9880    4.1977 H   0  0  0  0  0  0  0  0  0  0  0  0
    9.5490    3.2028    2.9239 H   0  0  0  0  0  0  0  0  0  0  0  0
   -5.9326    3.6194    1.3405 H   0  0  0  0  0  0  0  0  0  0  0  0
   -4.5237   -0.4355    0.9833 H   0  0  0  0  0  0  0  0  0  0  0  0
   -8.0662    2.9603    0.3258 H   0  0  0  0  0  0  0  0  0  0  0  0
   -6.5583   -1.0515   -0.1719 H   0  0  0  0  0  0  0  0  0  0  0  0
   -8.5823   -1.7291   -0.9156 H   0  0  0  0  0  0  0  0  0  0  0  0
  -10.5137   -1.8578   -2.8226 H   0  0  0  0  0  0  0  0  0  0  0  0
  -12.0668   -1.1437   -2.3633 H   0  0  0  0  0  0  0  0  0  0  0  0
  -12.2641   -2.7392   -0.4599 H   0  0  0  0  0  0  0  0  0  0  0  0
  -10.6595   -3.3810   -0.7928 H   0  0  0  0  0  0  0  0  0  0  0  0
  -11.4099   -4.1313   -3.0681 H   0  0  0  0  0  0  0  0  0  0  0  0
  -13.0165   -3.4881   -2.7427 H   0  0  0  0  0  0  0  0  0  0  0  0
  -13.2459   -5.0571   -0.7966 H   0  0  0  0  0  0  0  0  0  0  0  0
  -11.6410   -5.7111   -1.1395 H   0  0  0  0  0  0  0  0  0  0  0  0
  -12.3979   -6.4136   -3.4109 H   0  0  0  0  0  0  0  0  0  0  0  0
  -13.9895   -5.7393   -3.0995 H   0  0  0  0  0  0  0  0  0  0  0  0
  -14.2589   -7.3353   -1.1741 H   0  0  0  0  0  0  0  0  0  0  0  0
  -12.6494   -8.0065   -1.5241 H   0  0  0  0  0  0  0  0  0  0  0  0
  -14.3331   -9.9783   -1.5209 H   0  0  0  0  0  0  0  0  0  0  0  0
  -14.9998  -10.1189   -4.2040 H   0  0  0  0  0  0  0  0  0  0  0  0
  1  2  2  0  0  0  0
  2  3  1  0  0  0  0
  2  4  1  0  0  0  0
  3  5  1  0  0  0  0
  4  6  1  1  0  0  0
  4  7  1  0  0  0  0
  4 78  1  0  0  0  0
  5  8  1  1  0  0  0
  5  9  1  0  0  0  0
  5 79  1  0  0  0  0
  6 10  1  0  0  0  0
  6 11  1  1  0  0  0
  6 80  1  0  0  0  0
  7 81  1  0  0  0  0
  7 82  1  0  0  0  0
  7 83  1  0  0  0  0
  8 12  1  0  0  0  0
  8 13  1  1  0  0  0
  8 14  1  0  0  0  0
  9 15  1  0  0  0  0
  9 84  1  0  0  0  0
  9 85  1  0  0  0  0
 11 17  1  1  0  0  0
 11 18  1  0  0  0  0
 11 86  1  0  0  0  0
 12 87  1  0  0  0  0
 13 20  1  1  0  0  0
 13 19  1  0  0  0  0
 13 88  1  0  0  0  0
 14 89  1  0  0  0  0
 14 90  1  0  0  0  0
 14 91  1  0  0  0  0
 15 92  1  0  0  0  0
 15 93  1  0  0  0  0
 15 94  1  0  0  0  0
 16 10  1  0  0  0  0
 16 21  1  0  0  0  0
 16 22  1  0  0  0  0
 16 95  1  6  0  0  0
 17 23  1  0  0  0  0
 17 24  1  1  0  0  0
 17 96  1  0  0  0  0
 18 97  1  0  0  0  0
 18 98  1  0  0  0  0
 18 99  1  0  0  0  0
 19100  1  0  0  0  0
 20 25  1  0  0  0  0
 20 26  1  0  0  0  0
 20101  1  6  0  0  0
 21 27  1  0  0  0  0
 22 28  1  0  0  0  0
 22102  1  0  0  0  0
 22103  1  0  0  0  0
 24 30  1  1  0  0  0
 24 31  1  0  0  0  0
 24 32  1  0  0  0  0
 25 33  2  0  0  0  0
 25 34  1  0  0  0  0
 26104  1  0  0  0  0
 26105  1  0  0  0  0
 26106  1  0  0  0  0
 27 35  1  1  0  0  0
 27 36  1  0  0  0  0
 27107  1  0  0  0  0
 28 37  1  0  0  0  0
 28 38  1  0  0  0  0
 28 35  1  1  0  0  0
 29 23  1  0  0  0  0
 29 39  1  0  0  0  0
 29 40  1  1  0  0  0
 29108  1  0  0  0  0
 30 41  1  0  0  0  0
 31 34  1  0  0  0  0
 31109  1  0  0  0  0
 31110  1  0  0  0  0
 32111  1  0  0  0  0
 32112  1  0  0  0  0
 32113  1  0  0  0  0
 34 42  1  0  0  0  0
 34114  1  1  0  0  0
 35 43  1  1  0  0  0
 35 44  1  0  0  0  0
 36115  1  0  0  0  0
 36116  1  0  0  0  0
 36117  1  0  0  0  0
 37 45  1  0  0  0  0
 38118  1  0  0  0  0
 38119  1  0  0  0  0
 38120  1  0  0  0  0
 39 46  1  0  0  0  0
 40 48  1  6  0  0  0
 40 47  1  0  0  0  0
 40121  1  0  0  0  0
 41122  1  0  0  0  0
 41123  1  0  0  0  0
 41124  1  0  0  0  0
 42125  1  0  0  0  0
 42126  1  0  0  0  0
 42127  1  0  0  0  0
 43128  1  0  0  0  0
 44 49  1  0  0  0  0
 44129  1  0  0  0  0
 44130  1  0  0  0  0
 45131  1  0  0  0  0
 45132  1  0  0  0  0
 45133  1  0  0  0  0
 46 50  1  0  0  0  0
 46 51  1  0  0  0  0
 46134  1  6  0  0  0
 47135  1  0  0  0  0
 48 50  1  0  0  0  0
 48 52  1  0  0  0  0
 48136  1  1  0  0  0
 49 53  1  0  0  0  0
 49 54  1  0  0  0  0
 50137  1  0  0  0  0
 50138  1  0  0  0  0
 51139  1  0  0  0  0
 51140  1  0  0  0  0
 51141  1  0  0  0  0
 52 55  1  0  0  0  0
 52 56  1  0  0  0  0
 53 57  1  0  0  0  0
 53142  1  0  0  0  0
 53143  1  0  0  0  0
 54144  1  0  0  0  0
 54145  1  0  0  0  0
 54146  1  0  0  0  0
 55147  1  0  0  0  0
 55148  1  0  0  0  0
 55149  1  0  0  0  0
 56150  1  0  0  0  0
 56151  1  0  0  0  0
 56152  1  0  0  0  0
 57 58  2  0  0  0  0
 57 59  1  0  0  0  0
 58 60  1  0  0  0  0
 58153  1  0  0  0  0
 59 61  2  0  0  0  0
 59154  1  0  0  0  0
 60 62  2  0  0  0  0
 60155  1  0  0  0  0
 61 62  1  0  0  0  0
 61156  1  0  0  0  0
 62 63  1  0  0  0  0
 63 64  1  0  0  0  0
 63 65  2  0  0  0  0
 64 66  2  0  0  0  0
 65 67  1  0  0  0  0
 65157  1  0  0  0  0
 66 67  1  0  0  0  0
 67 68  1  0  0  0  0
 68 69  1  0  0  0  0
 68158  1  0  0  0  0
 68159  1  0  0  0  0
 69 70  1  0  0  0  0
 69160  1  0  0  0  0
 69161  1  0  0  0  0
 70 71  1  0  0  0  0
 70162  1  0  0  0  0
 70163  1  0  0  0  0
 71 72  1  0  0  0  0
 71164  1  0  0  0  0
 71165  1  0  0  0  0
 72 73  1  0  0  0  0
 72166  1  0  0  0  0
 72167  1  0  0  0  0
 73 74  1  0  0  0  0
 73168  1  0  0  0  0
 73169  1  0  0  0  0
 74 75  2  0  0  0  0
 74 76  1  0  0  0  0
 76 77  1  0  0  0  0
 76170  1  0  0  0  0
 77171  1  0  0  0  0
M  END
>  <Molecule Name>
2337321

>  <MolRegNo>
2337321

>  <m>
=

>  <Value>
23.9

>  <Unit>
nM

>  <Type>
IC50

>  <pValue>
7.62

>  <Ligand Efficiency>
0

>  <Binding Efficiency>
6.98

>  <Surface Efficiency>
0

>  <Assay Index>
977530

>  <Assay Category>


>  <Assay Organism>
Homo sapiens

>  <Target ID>
12697

>  <Target Name>
Histone deacetylase 1

>  <Target Organism>
Homo sapiens

>  <Target Description>
Target is a single protein chain

>  <Sequence Accession>
Q13547

>  <Reference>
Bioorg. Med. Chem. 23 (24), 7543-7564 (2015)

>  <Pubmed ID>
26585275

>  <DOI>
10.1016/j.bmc.2015.10.045

$$$$
2337377
 OpenBabel03252423443D

168172  0  0  0  0  0  0  0  0999 V2000
    0.7307   -0.1922   -0.1142 O   0  0  0  0  0  0  0  0  0  0  0  0
    1.9518   -0.1318   -0.1039 C   0  0  0  0  0  0  0  0  0  0  0  0
    2.7496   -1.2028   -0.3548 O   0  0  0  0  0  0  0  0  0  0  0  0
    2.7484    1.1191    0.2297 C   0  0  2  0  0  0  0  0  0  0  0  0
    2.0710   -2.4165   -0.7795 C   0  0  2  0  0  0  0  0  0  0  0  0
    2.8411    1.2550    1.8436 C   0  0  2  0  0  0  0  0  0  0  0  0
    2.1751    2.1954   -0.7199 C   0  0  0  0  0  0  0  0  0  0  0  0
    2.8621   -3.6560   -0.2136 C   0  0  2  0  0  0  0  0  0  0  0  0
    1.9513   -2.4202   -2.3299 C   0  0  0  0  0  0  0  0  0  0  0  0
    2.1674    2.3922    2.4126 O   0  0  0  0  0  0  0  0  0  0  0  0
    4.3432    1.1686    2.4016 C   0  0  1  0  0  0  0  0  0  0  0  0
    2.2401   -4.8596   -0.7137 O   0  0  0  0  0  0  0  0  0  0  0  0
    2.8427   -3.7644    1.3935 C   0  0  2  0  0  0  0  0  0  0  0  0
    4.2806   -3.6488   -0.8235 C   0  0  0  0  0  0  0  0  0  0  0  0
    1.1659   -1.2532   -2.9173 C   0  0  0  0  0  0  0  0  0  0  0  0
    0.8118    2.5495    2.0077 C   0  0  2  0  0  0  0  0  0  0  0  0
    4.6487    1.2119    4.0022 C   0  0  2  0  0  0  0  0  0  0  0  0
    5.0277   -0.0136    1.7298 C   0  0  0  0  0  0  0  0  0  0  0  0
    2.4193   -2.5676    2.0534 O   0  0  0  0  0  0  0  0  0  0  0  0
    4.1809   -4.2087    2.0261 C   0  0  1  0  0  0  0  0  0  0  0  0
    0.2365    3.7786    2.3468 O   0  0  0  0  0  0  0  0  0  0  0  0
   -0.1107    1.3902    2.2478 C   0  0  0  0  0  0  0  0  0  0  0  0
    5.6962    2.2069    4.2699 O   0  0  0  0  0  0  0  0  0  0  0  0
    5.2652   -0.1256    4.7719 C   0  0  1  0  0  0  0  0  0  0  0  0
    4.3551   -3.8170    3.4975 C   0  0  0  0  0  0  0  0  0  0  0  0
    4.4559   -5.7070    1.9115 C   0  0  0  0  0  0  0  0  0  0  0  0
   -0.4466    3.9116    3.5772 C   0  0  2  0  0  0  0  0  0  0  0  0
   -0.6340    1.2790    3.6578 C   0  0  2  0  0  0  0  0  0  0  0  0
    5.3511    3.5781    4.3818 C   0  0  2  0  0  0  0  0  0  0  0  0
    5.1646    0.0399    6.2319 O   0  0  0  0  0  0  0  0  0  0  0  0
    4.6241   -1.5045    4.3966 C   0  0  0  0  0  0  0  0  0  0  0  0
    6.8119   -0.1347    4.6804 C   0  0  0  0  0  0  0  0  0  0  0  0
    3.6443   -4.3258    4.3721 O   0  0  0  0  0  0  0  0  0  0  0  0
    5.4153   -2.7525    3.8888 C   0  0  2  0  0  0  0  0  0  0  0  0
   -1.2868    2.6675    4.0982 C   0  0  1  0  0  0  0  0  0  0  0  0
   -1.2041    5.2215    3.3208 C   0  0  0  0  0  0  0  0  0  0  0  0
    0.4493    1.1013    4.6160 O   0  0  0  0  0  0  0  0  0  0  0  0
   -1.5080   -0.0002    3.6603 C   0  0  0  0  0  0  0  0  0  0  0  0
    5.2890    4.2248    3.1037 O   0  0  0  0  0  0  0  0  0  0  0  0
    6.3147    4.4027    5.3038 C   0  0  2  0  0  0  0  0  0  0  0  0
    3.9085    0.0433    6.8807 C   0  0  0  0  0  0  0  0  0  0  0  0
    6.5229   -2.6343    2.8368 C   0  0  0  0  0  0  0  0  0  0  0  0
   -1.0794    2.7098    5.5782 O   0  0  0  0  0  0  0  0  0  0  0  0
   -2.8418    2.8266    4.1129 C   0  0  0  0  0  0  0  0  0  0  0  0
    1.1397   -0.1247    4.7515 C   0  0  0  0  0  0  0  0  0  0  0  0
    6.5438    4.4414    2.4462 C   0  0  1  0  0  0  0  0  0  0  0  0
    5.7422    5.7286    5.4921 O   0  0  0  0  0  0  0  0  0  0  0  0
    7.7549    4.5792    4.7116 C   0  0  2  0  0  0  0  0  0  0  0  0
   -3.8091    3.0594    3.0094 N   0  0  0  0  0  0  0  0  0  0  0  0
    7.5627    5.1914    3.3073 C   0  0  0  0  0  0  0  0  0  0  0  0
    7.1355    3.1800    1.8288 C   0  0  0  0  0  0  0  0  0  0  0  0
    8.5778    3.3397    4.7938 N   0  0  0  0  0  0  0  0  0  0  0  0
   -3.9360    1.8812    2.1366 C   0  0  0  0  0  0  0  0  0  0  0  0
   -5.1041    3.3370    3.6945 C   0  0  0  0  0  0  0  0  0  0  0  0
    8.9937    3.0701    6.1785 C   0  0  0  0  0  0  0  0  0  0  0  0
    9.7698    3.2929    3.9457 C   0  0  0  0  0  0  0  0  0  0  0  0
   -5.1039    1.8435    1.1761 C   0  0  0  0  0  0  0  0  0  0  0  0
   -5.5923    2.9771    0.5052 C   0  0  0  0  0  0  0  0  0  0  0  0
   -5.7749    0.6253    1.0053 C   0  0  0  0  0  0  0  0  0  0  0  0
   -6.8359    2.9412   -0.1283 C   0  0  0  0  0  0  0  0  0  0  0  0
   -6.9971    0.5829    0.3527 C   0  0  0  0  0  0  0  0  0  0  0  0
   -7.5864    1.7584   -0.1286 C   0  0  0  0  0  0  0  0  0  0  0  0
   -8.9775    1.7404   -0.5275 C   0  0  0  0  0  0  0  0  0  0  0  0
   -9.6031    2.6245   -1.3650 N   0  0  0  0  0  0  0  0  0  0  0  0
   -9.8993    0.8273   -0.0669 C   0  0  0  0  0  0  0  0  0  0  0  0
  -10.8632    2.2213   -1.5192 N   0  0  0  0  0  0  0  0  0  0  0  0
  -11.0195    1.1104   -0.7801 N   0  0  0  0  0  0  0  0  0  0  0  0
  -12.1448    0.2233   -0.9679 C   0  0  0  0  0  0  0  0  0  0  0  0
  -13.0493    0.1414    0.2539 C   0  0  0  0  0  0  0  0  0  0  0  0
  -14.1226   -0.9325    0.0668 C   0  0  0  0  0  0  0  0  0  0  0  0
  -15.0200   -1.0105    1.2987 C   0  0  0  0  0  0  0  0  0  0  0  0
  -16.1054   -2.0736    1.1522 C   0  0  0  0  0  0  0  0  0  0  0  0
  -16.9794   -2.1403    2.3850 C   0  0  0  0  0  0  0  0  0  0  0  0
  -16.8953   -1.3837    3.3370 O   0  0  0  0  0  0  0  0  0  0  0  0
  -17.9026   -3.1585    2.3515 N   0  0  0  0  0  0  0  0  0  0  0  0
  -18.8150   -3.1750    3.4349 O   0  0  0  0  0  0  0  0  0  0  0  0
    3.7509    0.9984   -0.1769 H   0  0  0  0  0  0  0  0  0  0  0  0
    1.0347   -2.4756   -0.3672 H   0  0  0  0  0  0  0  0  0  0  0  0
    2.3748    0.3660    2.2743 H   0  0  0  0  0  0  0  0  0  0  0  0
    1.0808    2.1565   -0.8190 H   0  0  0  0  0  0  0  0  0  0  0  0
    2.5082    1.9882   -1.7432 H   0  0  0  0  0  0  0  0  0  0  0  0
    2.4897    3.2066   -0.4582 H   0  0  0  0  0  0  0  0  0  0  0  0
    1.4805   -3.3504   -2.6682 H   0  0  0  0  0  0  0  0  0  0  0  0
    2.9431   -2.3606   -2.7889 H   0  0  0  0  0  0  0  0  0  0  0  0
    4.7866    2.0740    2.0044 H   0  0  0  0  0  0  0  0  0  0  0  0
    1.3257   -4.8945   -0.3772 H   0  0  0  0  0  0  0  0  0  0  0  0
    2.0823   -4.5072    1.6688 H   0  0  0  0  0  0  0  0  0  0  0  0
    4.2525   -3.7291   -1.9143 H   0  0  0  0  0  0  0  0  0  0  0  0
    4.8669   -4.5217   -0.5268 H   0  0  0  0  0  0  0  0  0  0  0  0
    4.8339   -2.7424   -0.5587 H   0  0  0  0  0  0  0  0  0  0  0  0
    0.1741   -1.1676   -2.4686 H   0  0  0  0  0  0  0  0  0  0  0  0
    1.0295   -1.3867   -4.0003 H   0  0  0  0  0  0  0  0  0  0  0  0
    1.6930   -0.3101   -2.7898 H   0  0  0  0  0  0  0  0  0  0  0  0
    0.8341    2.6834    0.9464 H   0  0  0  0  0  0  0  0  0  0  0  0
    3.7507    1.5418    4.5303 H   0  0  0  0  0  0  0  0  0  0  0  0
    4.4548   -0.9276    1.8846 H   0  0  0  0  0  0  0  0  0  0  0  0
    6.0454   -0.1240    2.0783 H   0  0  0  0  0  0  0  0  0  0  0  0
    5.1355    0.0792    0.6513 H   0  0  0  0  0  0  0  0  0  0  0  0
    2.2663   -1.8684    1.4082 H   0  0  0  0  0  0  0  0  0  0  0  0
    4.9606   -3.7097    1.4722 H   0  0  0  0  0  0  0  0  0  0  0  0
    0.3867    0.4551    2.0058 H   0  0  0  0  0  0  0  0  0  0  0  0
   -0.9483    1.4941    1.5525 H   0  0  0  0  0  0  0  0  0  0  0  0
    3.8094   -6.2891    2.5756 H   0  0  0  0  0  0  0  0  0  0  0  0
    5.4924   -5.9100    2.2037 H   0  0  0  0  0  0  0  0  0  0  0  0
    4.3173   -6.0789    0.8936 H   0  0  0  0  0  0  0  0  0  0  0  0
    0.3246    4.1294    4.3267 H   0  0  0  0  0  0  0  0  0  0  0  0
    4.3501    3.6574    4.8269 H   0  0  0  0  0  0  0  0  0  0  0  0
    3.7537   -1.3280    3.7643 H   0  0  0  0  0  0  0  0  0  0  0  0
    4.1643   -1.9092    5.3048 H   0  0  0  0  0  0  0  0  0  0  0  0
    7.2569    0.6189    5.3435 H   0  0  0  0  0  0  0  0  0  0  0  0
    7.1927    0.0684    3.6812 H   0  0  0  0  0  0  0  0  0  0  0  0
    7.2271   -1.0791    5.0478 H   0  0  0  0  0  0  0  0  0  0  0  0
    5.9264   -3.1805    4.7632 H   0  0  0  0  0  0  0  0  0  0  0  0
   -1.8709    5.1296    2.4525 H   0  0  0  0  0  0  0  0  0  0  0  0
   -0.4878    6.0044    3.0296 H   0  0  0  0  0  0  0  0  0  0  0  0
   -1.7653    5.5884    4.1824 H   0  0  0  0  0  0  0  0  0  0  0  0
   -0.9411   -0.8450    3.2401 H   0  0  0  0  0  0  0  0  0  0  0  0
   -2.3532    0.0603    2.9855 H   0  0  0  0  0  0  0  0  0  0  0  0
   -1.8165   -0.3029    4.6563 H   0  0  0  0  0  0  0  0  0  0  0  0
    6.3587    3.9643    6.3031 H   0  0  0  0  0  0  0  0  0  0  0  0
    4.0931    0.1830    7.9526 H   0  0  0  0  0  0  0  0  0  0  0  0
    3.3826   -0.9095    6.7891 H   0  0  0  0  0  0  0  0  0  0  0  0
    3.2824    0.8641    6.5400 H   0  0  0  0  0  0  0  0  0  0  0  0
    6.1802   -2.2528    1.8713 H   0  0  0  0  0  0  0  0  0  0  0  0
    6.9598   -3.6229    2.6380 H   0  0  0  0  0  0  0  0  0  0  0  0
    7.3563   -2.0095    3.1375 H   0  0  0  0  0  0  0  0  0  0  0  0
   -0.4789    1.9612    5.7724 H   0  0  0  0  0  0  0  0  0  0  0  0
   -2.9877    3.6938    4.7779 H   0  0  0  0  0  0  0  0  0  0  0  0
   -3.2193    1.9851    4.7159 H   0  0  0  0  0  0  0  0  0  0  0  0
    1.1581   -0.3797    5.8148 H   0  0  0  0  0  0  0  0  0  0  0  0
    2.1679    0.0330    4.4435 H   0  0  0  0  0  0  0  0  0  0  0  0
    0.7491   -0.9745    4.1977 H   0  0  0  0  0  0  0  0  0  0  0  0
    6.2967    5.0993    1.6058 H   0  0  0  0  0  0  0  0  0  0  0  0
    5.2773    5.9394    4.6568 H   0  0  0  0  0  0  0  0  0  0  0  0
    8.2748    5.3585    5.2885 H   0  0  0  0  0  0  0  0  0  0  0  0
    7.1936    6.2188    3.4400 H   0  0  0  0  0  0  0  0  0  0  0  0
    8.5133    5.3130    2.7759 H   0  0  0  0  0  0  0  0  0  0  0  0
    7.3935    2.4293    2.5793 H   0  0  0  0  0  0  0  0  0  0  0  0
    8.0349    3.4188    1.2569 H   0  0  0  0  0  0  0  0  0  0  0  0
    6.4378    2.7131    1.1356 H   0  0  0  0  0  0  0  0  0  0  0  0
   -4.0528    1.0006    2.7808 H   0  0  0  0  0  0  0  0  0  0  0  0
   -3.0303    1.7619    1.5391 H   0  0  0  0  0  0  0  0  0  0  0  0
   -5.0209    4.2414    4.3111 H   0  0  0  0  0  0  0  0  0  0  0  0
   -5.4071    2.5090    4.3499 H   0  0  0  0  0  0  0  0  0  0  0  0
   -5.9297    3.5390    3.0098 H   0  0  0  0  0  0  0  0  0  0  0  0
    9.5271    2.1150    6.2382 H   0  0  0  0  0  0  0  0  0  0  0  0
    8.1386    2.9745    6.8510 H   0  0  0  0  0  0  0  0  0  0  0  0
    9.6557    3.8549    6.5625 H   0  0  0  0  0  0  0  0  0  0  0  0
   10.2886    2.3350    4.0820 H   0  0  0  0  0  0  0  0  0  0  0  0
   10.4784    4.0984    4.1593 H   0  0  0  0  0  0  0  0  0  0  0  0
    9.5321    3.3216    2.8820 H   0  0  0  0  0  0  0  0  0  0  0  0
   -5.0498    3.9194    0.5688 H   0  0  0  0  0  0  0  0  0  0  0  0
   -5.3823   -0.2917    1.4435 H   0  0  0  0  0  0  0  0  0  0  0  0
   -7.2496    3.8525   -0.5554 H   0  0  0  0  0  0  0  0  0  0  0  0
   -7.5120   -0.3723    0.2801 H   0  0  0  0  0  0  0  0  0  0  0  0
   -9.8385    0.0007    0.6247 H   0  0  0  0  0  0  0  0  0  0  0  0
  -11.7164   -0.7644   -1.1882 H   0  0  0  0  0  0  0  0  0  0  0  0
  -12.6980    0.5494   -1.8534 H   0  0  0  0  0  0  0  0  0  0  0  0
  -13.5182    1.1167    0.4315 H   0  0  0  0  0  0  0  0  0  0  0  0
  -12.4594   -0.0915    1.1494 H   0  0  0  0  0  0  0  0  0  0  0  0
  -13.6456   -1.9051   -0.1043 H   0  0  0  0  0  0  0  0  0  0  0  0
  -14.7240   -0.7052   -0.8211 H   0  0  0  0  0  0  0  0  0  0  0  0
  -15.4833   -0.0319    1.4739 H   0  0  0  0  0  0  0  0  0  0  0  0
  -14.4078   -1.2317    2.1821 H   0  0  0  0  0  0  0  0  0  0  0  0
  -15.6502   -3.0579    0.9911 H   0  0  0  0  0  0  0  0  0  0  0  0
  -16.7431   -1.8437    0.2918 H   0  0  0  0  0  0  0  0  0  0  0  0
  -18.2330   -3.5674    1.4834 H   0  0  0  0  0  0  0  0  0  0  0  0
  -18.4994   -2.4290    3.9921 H   0  0  0  0  0  0  0  0  0  0  0  0
  1  2  2  0  0  0  0
  2  3  1  0  0  0  0
  2  4  1  0  0  0  0
  3  5  1  0  0  0  0
  4  6  1  1  0  0  0
  4  7  1  0  0  0  0
  4 77  1  0  0  0  0
  5  8  1  1  0  0  0
  5  9  1  0  0  0  0
  5 78  1  0  0  0  0
  6 10  1  0  0  0  0
  6 11  1  1  0  0  0
  6 79  1  0  0  0  0
  7 80  1  0  0  0  0
  7 81  1  0  0  0  0
  7 82  1  0  0  0  0
  8 12  1  0  0  0  0
  8 13  1  1  0  0  0
  8 14  1  0  0  0  0
  9 15  1  0  0  0  0
  9 83  1  0  0  0  0
  9 84  1  0  0  0  0
 11 17  1  1  0  0  0
 11 18  1  0  0  0  0
 11 85  1  0  0  0  0
 12 86  1  0  0  0  0
 13 20  1  1  0  0  0
 13 19  1  0  0  0  0
 13 87  1  0  0  0  0
 14 88  1  0  0  0  0
 14 89  1  0  0  0  0
 14 90  1  0  0  0  0
 15 91  1  0  0  0  0
 15 92  1  0  0  0  0
 15 93  1  0  0  0  0
 16 10  1  0  0  0  0
 16 21  1  0  0  0  0
 16 22  1  0  0  0  0
 16 94  1  6  0  0  0
 17 23  1  0  0  0  0
 17 24  1  1  0  0  0
 17 95  1  0  0  0  0
 18 96  1  0  0  0  0
 18 97  1  0  0  0  0
 18 98  1  0  0  0  0
 19 99  1  0  0  0  0
 20 25  1  0  0  0  0
 20 26  1  0  0  0  0
 20100  1  6  0  0  0
 21 27  1  0  0  0  0
 22 28  1  0  0  0  0
 22101  1  0  0  0  0
 22102  1  0  0  0  0
 24 30  1  1  0  0  0
 24 31  1  0  0  0  0
 24 32  1  0  0  0  0
 25 33  2  0  0  0  0
 25 34  1  0  0  0  0
 26103  1  0  0  0  0
 26104  1  0  0  0  0
 26105  1  0  0  0  0
 27 35  1  1  0  0  0
 27 36  1  0  0  0  0
 27106  1  0  0  0  0
 28 37  1  0  0  0  0
 28 38  1  0  0  0  0
 28 35  1  1  0  0  0
 29 23  1  0  0  0  0
 29 39  1  0  0  0  0
 29 40  1  1  0  0  0
 29107  1  0  0  0  0
 30 41  1  0  0  0  0
 31 34  1  0  0  0  0
 31108  1  0  0  0  0
 31109  1  0  0  0  0
 32110  1  0  0  0  0
 32111  1  0  0  0  0
 32112  1  0  0  0  0
 34 42  1  0  0  0  0
 34113  1  1  0  0  0
 35 43  1  1  0  0  0
 35 44  1  0  0  0  0
 36114  1  0  0  0  0
 36115  1  0  0  0  0
 36116  1  0  0  0  0
 37 45  1  0  0  0  0
 38117  1  0  0  0  0
 38118  1  0  0  0  0
 38119  1  0  0  0  0
 39 46  1  0  0  0  0
 40 48  1  6  0  0  0
 40 47  1  0  0  0  0
 40120  1  0  0  0  0
 41121  1  0  0  0  0
 41122  1  0  0  0  0
 41123  1  0  0  0  0
 42124  1  0  0  0  0
 42125  1  0  0  0  0
 42126  1  0  0  0  0
 43127  1  0  0  0  0
 44 49  1  0  0  0  0
 44128  1  0  0  0  0
 44129  1  0  0  0  0
 45130  1  0  0  0  0
 45131  1  0  0  0  0
 45132  1  0  0  0  0
 46 50  1  0  0  0  0
 46 51  1  0  0  0  0
 46133  1  6  0  0  0
 47134  1  0  0  0  0
 48 50  1  0  0  0  0
 48 52  1  0  0  0  0
 48135  1  1  0  0  0
 49 53  1  0  0  0  0
 49 54  1  0  0  0  0
 50136  1  0  0  0  0
 50137  1  0  0  0  0
 51138  1  0  0  0  0
 51139  1  0  0  0  0
 51140  1  0  0  0  0
 52 55  1  0  0  0  0
 52 56  1  0  0  0  0
 53 57  1  0  0  0  0
 53141  1  0  0  0  0
 53142  1  0  0  0  0
 54143  1  0  0  0  0
 54144  1  0  0  0  0
 54145  1  0  0  0  0
 55146  1  0  0  0  0
 55147  1  0  0  0  0
 55148  1  0  0  0  0
 56149  1  0  0  0  0
 56150  1  0  0  0  0
 56151  1  0  0  0  0
 57 58  2  0  0  0  0
 57 59  1  0  0  0  0
 58 60  1  0  0  0  0
 58152  1  0  0  0  0
 59 61  2  0  0  0  0
 59153  1  0  0  0  0
 60 62  2  0  0  0  0
 60154  1  0  0  0  0
 61 62  1  0  0  0  0
 61155  1  0  0  0  0
 62 63  1  0  0  0  0
 63 64  1  0  0  0  0
 63 65  2  0  0  0  0
 64 66  2  0  0  0  0
 65 67  1  0  0  0  0
 65156  1  0  0  0  0
 66 67  1  0  0  0  0
 67 68  1  0  0  0  0
 68 69  1  0  0  0  0
 68157  1  0  0  0  0
 68158  1  0  0  0  0
 69 70  1  0  0  0  0
 69159  1  0  0  0  0
 69160  1  0  0  0  0
 70 71  1  0  0  0  0
 70161  1  0  0  0  0
 70162  1  0  0  0  0
 71 72  1  0  0  0  0
 71163  1  0  0  0  0
 71164  1  0  0  0  0
 72 73  1  0  0  0  0
 72165  1  0  0  0  0
 72166  1  0  0  0  0
 73 74  2  0  0  0  0
 73 75  1  0  0  0  0
 75 76  1  0  0  0  0
 75167  1  0  0  0  0
 76168  1  0  0  0  0
M  END
>  <Molecule Name>
2337377

>  <MolRegNo>
2337377

>  <m>
=

>  <Value>
652

>  <Unit>
nM

>  <Type>
IC50

>  <pValue>
6.19

>  <Ligand Efficiency>
0

>  <Binding Efficiency>
5.74

>  <Surface Efficiency>
0

>  <Assay Index>
977530

>  <Assay Category>


>  <Assay Organism>
Homo sapiens

>  <Target ID>
12697

>  <Target Name>
Histone deacetylase 1

>  <Target Organism>
Homo sapiens

>  <Target Description>
Target is a single protein chain

>  <Sequence Accession>
Q13547

>  <Reference>
Bioorg. Med. Chem. 23 (24), 7543-7564 (2015)

>  <Pubmed ID>
26585275

>  <DOI>
10.1016/j.bmc.2015.10.045

$$$$
2337399
 OpenBabel03252423443D

165169  0  0  0  0  0  0  0  0999 V2000
    0.6119   -0.1567   -0.0958 O   0  0  0  0  0  0  0  0  0  0  0  0
    1.8287   -0.1182   -0.0738 C   0  0  0  0  0  0  0  0  0  0  0  0
    2.6365   -1.1856   -0.2991 O   0  0  0  0  0  0  0  0  0  0  0  0
    2.6397    1.1416    0.2394 C   0  0  2  0  0  0  0  0  0  0  0  0
    1.9612   -2.3991   -0.7252 C   0  0  2  0  0  0  0  0  0  0  0  0
    2.7611    1.2866    1.8469 C   0  0  2  0  0  0  0  0  0  0  0  0
    2.0563    2.2194   -0.7028 C   0  0  0  0  0  0  0  0  0  0  0  0
    2.7704   -3.6373   -0.1648 C   0  0  2  0  0  0  0  0  0  0  0  0
    1.8519   -2.4008   -2.2718 C   0  0  0  0  0  0  0  0  0  0  0  0
    2.0920    2.4227    2.4212 O   0  0  0  0  0  0  0  0  0  0  0  0
    4.2725    1.2281    2.3866 C   0  0  1  0  0  0  0  0  0  0  0  0
    2.1665   -4.8472   -0.6645 O   0  0  0  0  0  0  0  0  0  0  0  0
    2.7612   -3.7506    1.4409 C   0  0  2  0  0  0  0  0  0  0  0  0
    4.1898   -3.6027   -0.7752 C   0  0  0  0  0  0  0  0  0  0  0  0
    1.0404   -1.2448   -2.8640 C   0  0  0  0  0  0  0  0  0  0  0  0
    0.7236    2.5676    2.0507 C   0  0  2  0  0  0  0  0  0  0  0  0
    4.5797    1.2545    3.9905 C   0  0  2  0  0  0  0  0  0  0  0  0
    4.9859    0.0755    1.6941 C   0  0  0  0  0  0  0  0  0  0  0  0
    2.3273   -2.5497    2.0836 O   0  0  0  0  0  0  0  0  0  0  0  0
    4.0992   -4.2099    2.0656 C   0  0  1  0  0  0  0  0  0  0  0  0
    0.1439    3.8004    2.3709 O   0  0  0  0  0  0  0  0  0  0  0  0
   -0.1868    1.4057    2.3428 C   0  0  0  0  0  0  0  0  0  0  0  0
    5.6247    2.2447    4.2697 O   0  0  0  0  0  0  0  0  0  0  0  0
    5.1915   -0.0875    4.7538 C   0  0  1  0  0  0  0  0  0  0  0  0
    4.3125   -3.8011    3.5281 C   0  0  0  0  0  0  0  0  0  0  0  0
    4.3561   -5.7102    1.9421 C   0  0  0  0  0  0  0  0  0  0  0  0
   -0.4803    3.9682    3.6314 C   0  0  2  0  0  0  0  0  0  0  0  0
   -0.6509    1.3295    3.7794 C   0  0  2  0  0  0  0  0  0  0  0  0
    5.2763    3.6134    4.3780 C   0  0  2  0  0  0  0  0  0  0  0  0
    5.1003    0.0706    6.2143 O   0  0  0  0  0  0  0  0  0  0  0  0
    4.5440   -1.4600    4.3671 C   0  0  0  0  0  0  0  0  0  0  0  0
    6.7393   -0.0980    4.6627 C   0  0  0  0  0  0  0  0  0  0  0  0
    3.6362   -4.3408    4.4134 O   0  0  0  0  0  0  0  0  0  0  0  0
    5.3498   -2.7084    3.8872 C   0  0  2  0  0  0  0  0  0  0  0  0
   -1.2760    2.7295    4.2279 C   0  0  1  0  0  0  0  0  0  0  0  0
   -1.2697    5.2567    3.3684 C   0  0  0  0  0  0  0  0  0  0  0  0
    0.4733    1.1602    4.6895 O   0  0  0  0  0  0  0  0  0  0  0  0
   -1.5298    0.0633    3.8485 C   0  0  0  0  0  0  0  0  0  0  0  0
    5.2326    4.2591    3.0981 O   0  0  0  0  0  0  0  0  0  0  0  0
    6.2244    4.4308    5.3144 C   0  0  2  0  0  0  0  0  0  0  0  0
    3.8558    0.0747    6.8811 C   0  0  0  0  0  0  0  0  0  0  0  0
    6.4303   -2.5794    2.8078 C   0  0  0  0  0  0  0  0  0  0  0  0
   -0.9770    2.8101    5.6910 O   0  0  0  0  0  0  0  0  0  0  0  0
   -2.8277    2.8770    4.3379 C   0  0  0  0  0  0  0  0  0  0  0  0
    1.1479   -0.0739    4.8141 C   0  0  0  0  0  0  0  0  0  0  0  0
    6.4994    4.4661    2.4601 C   0  0  1  0  0  0  0  0  0  0  0  0
    5.6618    5.7587    5.5041 O   0  0  0  0  0  0  0  0  0  0  0  0
    7.6776    4.6040    4.7444 C   0  0  2  0  0  0  0  0  0  0  0  0
   -3.8659    3.0826    3.2940 N   0  0  0  0  0  0  0  0  0  0  0  0
    7.5064    5.2143    3.3367 C   0  0  0  0  0  0  0  0  0  0  0  0
    7.0902    3.2062    1.8659 C   0  0  0  0  0  0  0  0  0  0  0  0
    8.4970    3.3713    4.8420 N   0  0  0  0  0  0  0  0  0  0  0  0
   -4.0322    1.8920    2.4427 C   0  0  0  0  0  0  0  0  0  0  0  0
   -5.1168    3.3522    4.0559 C   0  0  0  0  0  0  0  0  0  0  0  0
    8.8882    3.0975    6.2371 C   0  0  0  0  0  0  0  0  0  0  0  0
    9.7098    3.3202    4.0221 C   0  0  0  0  0  0  0  0  0  0  0  0
   -5.2727    1.8217    1.5735 C   0  0  0  0  0  0  0  0  0  0  0  0
   -5.8197    2.9323    0.9169 C   0  0  0  0  0  0  0  0  0  0  0  0
   -5.9331    0.5909    1.4790 C   0  0  0  0  0  0  0  0  0  0  0  0
   -7.1118    2.8657    0.3760 C   0  0  0  0  0  0  0  0  0  0  0  0
   -7.2003    0.5195    0.9174 C   0  0  0  0  0  0  0  0  0  0  0  0
   -7.8415    1.6752    0.4514 C   0  0  0  0  0  0  0  0  0  0  0  0
   -9.2558    1.6202    0.1412 C   0  0  0  0  0  0  0  0  0  0  0  0
   -9.9588    2.4918   -0.6470 N   0  0  0  0  0  0  0  0  0  0  0  0
  -10.1227    0.6753    0.6461 C   0  0  0  0  0  0  0  0  0  0  0  0
  -11.2150    2.0546   -0.7246 N   0  0  0  0  0  0  0  0  0  0  0  0
  -11.2933    0.9301    0.0064 N   0  0  0  0  0  0  0  0  0  0  0  0
  -12.4176    0.0272   -0.1015 C   0  0  0  0  0  0  0  0  0  0  0  0
  -13.2062   -0.1593    1.1937 C   0  0  0  0  0  0  0  0  0  0  0  0
  -14.0114    1.0820    1.5753 C   0  0  0  0  0  0  0  0  0  0  0  0
  -14.7807    0.8645    2.8766 C   0  0  0  0  0  0  0  0  0  0  0  0
  -15.6200    2.0745    3.2122 C   0  0  0  0  0  0  0  0  0  0  0  0
  -16.8496    2.0776    3.1614 O   0  0  0  0  0  0  0  0  0  0  0  0
  -14.8905    3.1811    3.5752 N   0  0  0  0  0  0  0  0  0  0  0  0
  -15.6292    4.3754    3.7586 O   0  0  0  0  0  0  0  0  0  0  0  0
    3.6317    1.0053   -0.1893 H   0  0  0  0  0  0  0  0  0  0  0  0
    0.9455   -2.4595   -0.3053 H   0  0  0  0  0  0  0  0  0  0  0  0
    2.3095    0.3952    2.2893 H   0  0  0  0  0  0  0  0  0  0  0  0
    0.9611    2.1902   -0.7906 H   0  0  0  0  0  0  0  0  0  0  0  0
    2.3756    2.0097   -1.7323 H   0  0  0  0  0  0  0  0  0  0  0  0
    2.3818    3.2287   -0.4475 H   0  0  0  0  0  0  0  0  0  0  0  0
    1.4292   -3.3517   -2.6064 H   0  0  0  0  0  0  0  0  0  0  0  0
    2.8488   -2.3071   -2.7188 H   0  0  0  0  0  0  0  0  0  0  0  0
    4.6917    2.1525    1.9986 H   0  0  0  0  0  0  0  0  0  0  0  0
    1.2471   -4.8839   -0.3419 H   0  0  0  0  0  0  0  0  0  0  0  0
    2.0006   -4.4913    1.7207 H   0  0  0  0  0  0  0  0  0  0  0  0
    4.1618   -3.6723   -1.8663 H   0  0  0  0  0  0  0  0  0  0  0  0
    4.7892   -4.4698   -0.4888 H   0  0  0  0  0  0  0  0  0  0  0  0
    4.7302   -2.6906   -0.5016 H   0  0  0  0  0  0  0  0  0  0  0  0
    0.0445   -1.2049   -2.4213 H   0  0  0  0  0  0  0  0  0  0  0  0
    0.9153   -1.4000   -3.9407 H   0  0  0  0  0  0  0  0  0  0  0  0
    1.5467   -0.2997   -2.7346 H   0  0  0  0  0  0  0  0  0  0  0  0
    0.7130    2.6667    0.9865 H   0  0  0  0  0  0  0  0  0  0  0  0
    3.6824    1.5821    4.5207 H   0  0  0  0  0  0  0  0  0  0  0  0
    4.4298   -0.8497    1.8388 H   0  0  0  0  0  0  0  0  0  0  0  0
    6.0072   -0.0251    2.0376 H   0  0  0  0  0  0  0  0  0  0  0  0
    5.0883    0.1889    0.6161 H   0  0  0  0  0  0  0  0  0  0  0  0
    2.4500   -1.8077    1.4774 H   0  0  0  0  0  0  0  0  0  0  0  0
    4.8858   -3.7277    1.5036 H   0  0  0  0  0  0  0  0  0  0  0  0
    0.2930    0.4684    2.0877 H   0  0  0  0  0  0  0  0  0  0  0  0
   -1.0607    1.5087    1.6879 H   0  0  0  0  0  0  0  0  0  0  0  0
    3.7015   -6.2892    2.6002 H   0  0  0  0  0  0  0  0  0  0  0  0
    5.3910   -5.9317    2.2303 H   0  0  0  0  0  0  0  0  0  0  0  0
    4.2128   -6.0689    0.9201 H   0  0  0  0  0  0  0  0  0  0  0  0
    0.3216    4.2285    4.3333 H   0  0  0  0  0  0  0  0  0  0  0  0
    4.2705    3.6948    4.8075 H   0  0  0  0  0  0  0  0  0  0  0  0
    3.7065   -1.2802    3.6953 H   0  0  0  0  0  0  0  0  0  0  0  0
    4.0425   -1.8534    5.2580 H   0  0  0  0  0  0  0  0  0  0  0  0
    7.1843    0.6542    5.3270 H   0  0  0  0  0  0  0  0  0  0  0  0
    7.1218    0.1074    3.6646 H   0  0  0  0  0  0  0  0  0  0  0  0
    7.1549   -1.0428    5.0289 H   0  0  0  0  0  0  0  0  0  0  0  0
    5.8799   -3.1078    4.7639 H   0  0  0  0  0  0  0  0  0  0  0  0
   -1.9701    5.1259    2.5322 H   0  0  0  0  0  0  0  0  0  0  0  0
   -0.5761    6.0390    3.0189 H   0  0  0  0  0  0  0  0  0  0  0  0
   -1.7957    5.6450    4.2386 H   0  0  0  0  0  0  0  0  0  0  0  0
   -0.9932   -0.7998    3.4237 H   0  0  0  0  0  0  0  0  0  0  0  0
   -2.4030    0.1090    3.2105 H   0  0  0  0  0  0  0  0  0  0  0  0
   -1.7998   -0.2163    4.8661 H   0  0  0  0  0  0  0  0  0  0  0  0
    6.2567    3.9869    6.3127 H   0  0  0  0  0  0  0  0  0  0  0  0
    4.0527    0.2191    7.9490 H   0  0  0  0  0  0  0  0  0  0  0  0
    3.3345   -0.8815    6.8014 H   0  0  0  0  0  0  0  0  0  0  0  0
    3.2243    0.8954    6.5455 H   0  0  0  0  0  0  0  0  0  0  0  0
    6.0555   -2.2080    1.8540 H   0  0  0  0  0  0  0  0  0  0  0  0
    6.8705   -3.5621    2.5996 H   0  0  0  0  0  0  0  0  0  0  0  0
    7.2646   -1.9435    3.0867 H   0  0  0  0  0  0  0  0  0  0  0  0
   -0.3754    2.0587    5.8700 H   0  0  0  0  0  0  0  0  0  0  0  0
   -2.9402    3.7536    4.9964 H   0  0  0  0  0  0  0  0  0  0  0  0
   -3.1578    2.0424    4.9767 H   0  0  0  0  0  0  0  0  0  0  0  0
    1.2260   -0.3014    5.8800 H   0  0  0  0  0  0  0  0  0  0  0  0
    2.1543    0.0556    4.4346 H   0  0  0  0  0  0  0  0  0  0  0  0
    0.7118   -0.9354    4.3140 H   0  0  0  0  0  0  0  0  0  0  0  0
    6.2689    5.1207    1.6132 H   0  0  0  0  0  0  0  0  0  0  0  0
    5.2007    5.9777    4.6702 H   0  0  0  0  0  0  0  0  0  0  0  0
    8.1872    5.3878    5.3281 H   0  0  0  0  0  0  0  0  0  0  0  0
    7.1345    6.2436    3.4614 H   0  0  0  0  0  0  0  0  0  0  0  0
    8.4643    5.3342    2.8192 H   0  0  0  0  0  0  0  0  0  0  0  0
    7.3456    2.4527    2.6129 H   0  0  0  0  0  0  0  0  0  0  0  0
    8.0025    3.4345    1.2938 H   0  0  0  0  0  0  0  0  0  0  0  0
    6.4057    2.7290    1.1584 H   0  0  0  0  0  0  0  0  0  0  0  0
   -4.0972    1.0247    3.1084 H   0  0  0  0  0  0  0  0  0  0  0  0
   -3.1683    1.7785    1.7857 H   0  0  0  0  0  0  0  0  0  0  0  0
   -5.0059    4.2633    4.6562 H   0  0  0  0  0  0  0  0  0  0  0  0
   -5.3680    2.5265    4.7352 H   0  0  0  0  0  0  0  0  0  0  0  0
   -5.9850    3.5377    3.4211 H   0  0  0  0  0  0  0  0  0  0  0  0
    9.4218    2.1408    6.3039 H   0  0  0  0  0  0  0  0  0  0  0  0
    8.0217    2.9984    6.8963 H   0  0  0  0  0  0  0  0  0  0  0  0
    9.5425    3.8825    6.6376 H   0  0  0  0  0  0  0  0  0  0  0  0
   10.2226    2.3658    4.1647 H   0  0  0  0  0  0  0  0  0  0  0  0
   10.4096    4.1309    4.2429 H   0  0  0  0  0  0  0  0  0  0  0  0
    9.4839    3.3514    2.9516 H   0  0  0  0  0  0  0  0  0  0  0  0
   -5.2871    3.8819    0.9225 H   0  0  0  0  0  0  0  0  0  0  0  0
   -5.5001   -0.3106    1.9065 H   0  0  0  0  0  0  0  0  0  0  0  0
   -7.5620    3.7661   -0.0371 H   0  0  0  0  0  0  0  0  0  0  0  0
   -7.7019   -0.4442    0.9031 H   0  0  0  0  0  0  0  0  0  0  0  0
   -9.9951   -0.1562    1.3217 H   0  0  0  0  0  0  0  0  0  0  0  0
  -11.9927   -0.9386   -0.4020 H   0  0  0  0  0  0  0  0  0  0  0  0
  -13.0624    0.3696   -0.9165 H   0  0  0  0  0  0  0  0  0  0  0  0
  -12.5327   -0.4294    2.0153 H   0  0  0  0  0  0  0  0  0  0  0  0
  -13.8942   -1.0018    1.0596 H   0  0  0  0  0  0  0  0  0  0  0  0
  -14.7161    1.3315    0.7717 H   0  0  0  0  0  0  0  0  0  0  0  0
  -13.3419    1.9432    1.6737 H   0  0  0  0  0  0  0  0  0  0  0  0
  -14.0965    0.6692    3.7114 H   0  0  0  0  0  0  0  0  0  0  0  0
  -15.4475   -0.0005    2.7914 H   0  0  0  0  0  0  0  0  0  0  0  0
  -13.9123    3.2993    3.3308 H   0  0  0  0  0  0  0  0  0  0  0  0
  -16.5502    4.0742    3.5889 H   0  0  0  0  0  0  0  0  0  0  0  0
  1  2  2  0  0  0  0
  2  3  1  0  0  0  0
  2  4  1  0  0  0  0
  3  5  1  0  0  0  0
  4  6  1  1  0  0  0
  4  7  1  0  0  0  0
  4 76  1  0  0  0  0
  5  8  1  1  0  0  0
  5  9  1  0  0  0  0
  5 77  1  0  0  0  0
  6 10  1  0  0  0  0
  6 11  1  1  0  0  0
  6 78  1  0  0  0  0
  7 79  1  0  0  0  0
  7 80  1  0  0  0  0
  7 81  1  0  0  0  0
  8 12  1  0  0  0  0
  8 13  1  1  0  0  0
  8 14  1  0  0  0  0
  9 15  1  0  0  0  0
  9 82  1  0  0  0  0
  9 83  1  0  0  0  0
 11 17  1  1  0  0  0
 11 18  1  0  0  0  0
 11 84  1  0  0  0  0
 12 85  1  0  0  0  0
 13 20  1  1  0  0  0
 13 19  1  0  0  0  0
 13 86  1  0  0  0  0
 14 87  1  0  0  0  0
 14 88  1  0  0  0  0
 14 89  1  0  0  0  0
 15 90  1  0  0  0  0
 15 91  1  0  0  0  0
 15 92  1  0  0  0  0
 16 10  1  0  0  0  0
 16 21  1  0  0  0  0
 16 22  1  0  0  0  0
 16 93  1  6  0  0  0
 17 23  1  0  0  0  0
 17 24  1  1  0  0  0
 17 94  1  0  0  0  0
 18 95  1  0  0  0  0
 18 96  1  0  0  0  0
 18 97  1  0  0  0  0
 19 98  1  0  0  0  0
 20 25  1  0  0  0  0
 20 26  1  0  0  0  0
 20 99  1  6  0  0  0
 21 27  1  0  0  0  0
 22 28  1  0  0  0  0
 22100  1  0  0  0  0
 22101  1  0  0  0  0
 24 30  1  1  0  0  0
 24 31  1  0  0  0  0
 24 32  1  0  0  0  0
 25 33  2  0  0  0  0
 25 34  1  0  0  0  0
 26102  1  0  0  0  0
 26103  1  0  0  0  0
 26104  1  0  0  0  0
 27 35  1  1  0  0  0
 27 36  1  0  0  0  0
 27105  1  0  0  0  0
 28 37  1  0  0  0  0
 28 38  1  0  0  0  0
 28 35  1  1  0  0  0
 29 23  1  0  0  0  0
 29 39  1  0  0  0  0
 29 40  1  1  0  0  0
 29106  1  0  0  0  0
 30 41  1  0  0  0  0
 31 34  1  0  0  0  0
 31107  1  0  0  0  0
 31108  1  0  0  0  0
 32109  1  0  0  0  0
 32110  1  0  0  0  0
 32111  1  0  0  0  0
 34 42  1  0  0  0  0
 34112  1  1  0  0  0
 35 43  1  1  0  0  0
 35 44  1  0  0  0  0
 36113  1  0  0  0  0
 36114  1  0  0  0  0
 36115  1  0  0  0  0
 37 45  1  0  0  0  0
 38116  1  0  0  0  0
 38117  1  0  0  0  0
 38118  1  0  0  0  0
 39 46  1  0  0  0  0
 40 48  1  6  0  0  0
 40 47  1  0  0  0  0
 40119  1  0  0  0  0
 41120  1  0  0  0  0
 41121  1  0  0  0  0
 41122  1  0  0  0  0
 42123  1  0  0  0  0
 42124  1  0  0  0  0
 42125  1  0  0  0  0
 43126  1  0  0  0  0
 44 49  1  0  0  0  0
 44127  1  0  0  0  0
 44128  1  0  0  0  0
 45129  1  0  0  0  0
 45130  1  0  0  0  0
 45131  1  0  0  0  0
 46 50  1  0  0  0  0
 46 51  1  0  0  0  0
 46132  1  6  0  0  0
 47133  1  0  0  0  0
 48 50  1  0  0  0  0
 48 52  1  0  0  0  0
 48134  1  1  0  0  0
 49 53  1  0  0  0  0
 49 54  1  0  0  0  0
 50135  1  0  0  0  0
 50136  1  0  0  0  0
 51137  1  0  0  0  0
 51138  1  0  0  0  0
 51139  1  0  0  0  0
 52 55  1  0  0  0  0
 52 56  1  0  0  0  0
 53 57  1  0  0  0  0
 53140  1  0  0  0  0
 53141  1  0  0  0  0
 54142  1  0  0  0  0
 54143  1  0  0  0  0
 54144  1  0  0  0  0
 55145  1  0  0  0  0
 55146  1  0  0  0  0
 55147  1  0  0  0  0
 56148  1  0  0  0  0
 56149  1  0  0  0  0
 56150  1  0  0  0  0
 57 58  2  0  0  0  0
 57 59  1  0  0  0  0
 58 60  1  0  0  0  0
 58151  1  0  0  0  0
 59 61  2  0  0  0  0
 59152  1  0  0  0  0
 60 62  2  0  0  0  0
 60153  1  0  0  0  0
 61 62  1  0  0  0  0
 61154  1  0  0  0  0
 62 63  1  0  0  0  0
 63 64  1  0  0  0  0
 63 65  2  0  0  0  0
 64 66  2  0  0  0  0
 65 67  1  0  0  0  0
 65155  1  0  0  0  0
 66 67  1  0  0  0  0
 67 68  1  0  0  0  0
 68 69  1  0  0  0  0
 68156  1  0  0  0  0
 68157  1  0  0  0  0
 69 70  1  0  0  0  0
 69158  1  0  0  0  0
 69159  1  0  0  0  0
 70 71  1  0  0  0  0
 70160  1  0  0  0  0
 70161  1  0  0  0  0
 71 72  1  0  0  0  0
 71162  1  0  0  0  0
 71163  1  0  0  0  0
 72 73  2  0  0  0  0
 72 74  1  0  0  0  0
 74 75  1  0  0  0  0
 74164  1  0  0  0  0
 75165  1  0  0  0  0
M  END
>  <Molecule Name>
2337399

>  <MolRegNo>
2337399

>  <m>
=

>  <Value>
3690

>  <Unit>
nM

>  <Type>
IC50

>  <pValue>
5.43

>  <Ligand Efficiency>
0

>  <Binding Efficiency>
5.11

>  <Surface Efficiency>
0

>  <Assay Index>
977530

>  <Assay Category>


>  <Assay Organism>
Homo sapiens

>  <Target ID>
12697

>  <Target Name>
Histone deacetylase 1

>  <Target Organism>
Homo sapiens

>  <Target Description>
Target is a single protein chain

>  <Sequence Accession>
Q13547

>  <Reference>
Bioorg. Med. Chem. 23 (24), 7543-7564 (2015)

>  <Pubmed ID>
26585275

>  <DOI>
10.1016/j.bmc.2015.10.045

$$$$
2337442
 OpenBabel03252423443D

160164  0  0  0  0  0  0  0  0999 V2000
    0.3362   -0.3403   -0.0124 O   0  0  0  0  0  0  0  0  0  0  0  0
    1.5243   -0.1775   -0.2632 C   0  0  0  0  0  0  0  0  0  0  0  0
    2.3587   -1.1831   -0.6416 O   0  0  0  0  0  0  0  0  0  0  0  0
    2.2317    1.1583   -0.1833 C   0  0  2  0  0  0  0  0  0  0  0  0
    1.7438   -2.4457   -1.0020 C   0  0  2  0  0  0  0  0  0  0  0  0
    2.3216    1.5533    1.3536 C   0  0  2  0  0  0  0  0  0  0  0  0
    1.5552    2.0809   -1.2092 C   0  0  0  0  0  0  0  0  0  0  0  0
    2.5602   -3.6633   -0.4120 C   0  0  2  0  0  0  0  0  0  0  0  0
    1.6490   -2.4557   -2.5444 C   0  0  0  0  0  0  0  0  0  0  0  0
    1.7350    2.8530    1.5155 O   0  0  0  0  0  0  0  0  0  0  0  0
    3.9467    1.3321    1.9664 C   0  0  1  0  0  0  0  0  0  0  0  0
    1.9878   -4.8806   -0.9375 O   0  0  0  0  0  0  0  0  0  0  0  0
    2.4884   -3.8035    1.1865 C   0  0  2  0  0  0  0  0  0  0  0  0
    3.9942   -3.6196   -0.9809 C   0  0  0  0  0  0  0  0  0  0  0  0
    0.8144   -1.3087   -3.1027 C   0  0  0  0  0  0  0  0  0  0  0  0
    0.3142    3.1012    1.3963 C   0  0  2  0  0  0  0  0  0  0  0  0
    4.3255    1.2345    3.6408 C   0  0  2  0  0  0  0  0  0  0  0  0
    4.3483    0.0224    1.2858 C   0  0  0  0  0  0  0  0  0  0  0  0
    2.0973   -2.5873    1.8224 O   0  0  0  0  0  0  0  0  0  0  0  0
    3.8037   -4.2619    1.8493 C   0  0  1  0  0  0  0  0  0  0  0  0
   -0.0865    4.4537    1.5915 O   0  0  0  0  0  0  0  0  0  0  0  0
   -0.6495    2.1274    2.0271 C   0  0  0  0  0  0  0  0  0  0  0  0
    4.9972    2.4139    4.3311 O   0  0  0  0  0  0  0  0  0  0  0  0
    4.8759   -0.1138    4.2875 C   0  0  1  0  0  0  0  0  0  0  0  0
    3.9871   -3.8120    3.2947 C   0  0  0  0  0  0  0  0  0  0  0  0
    4.1373   -5.7452    1.8043 C   0  0  0  0  0  0  0  0  0  0  0  0
   -0.7163    4.8862    2.7937 C   0  0  2  0  0  0  0  0  0  0  0  0
   -1.0533    2.4179    3.4824 C   0  0  2  0  0  0  0  0  0  0  0  0
    6.4000    2.7837    4.5236 C   0  0  2  0  0  0  0  0  0  0  0  0
    4.8071   -0.0042    5.7408 O   0  0  0  0  0  0  0  0  0  0  0  0
    4.1823   -1.4491    3.9317 C   0  0  0  0  0  0  0  0  0  0  0  0
    6.3483   -0.2196    3.8967 C   0  0  0  0  0  0  0  0  0  0  0  0
    3.3160   -4.2972    4.2093 O   0  0  0  0  0  0  0  0  0  0  0  0
    5.0194   -2.7151    3.5828 C   0  0  2  0  0  0  0  0  0  0  0  0
   -1.6344    3.8606    3.5012 C   0  0  1  0  0  0  0  0  0  0  0  0
   -1.5564    6.1052    2.3592 C   0  0  0  0  0  0  0  0  0  0  0  0
    0.0700    2.2021    4.3499 O   0  0  0  0  0  0  0  0  0  0  0  0
   -2.0804    1.3118    3.7919 C   0  0  0  0  0  0  0  0  0  0  0  0
    7.3515    1.9034    5.1698 O   0  0  0  0  0  0  0  0  0  0  0  0
    6.7299    4.1818    5.1406 C   0  0  2  0  0  0  0  0  0  0  0  0
    3.5727   -0.0547    6.4614 C   0  0  0  0  0  0  0  0  0  0  0  0
    6.1297   -2.7218    2.5114 C   0  0  0  0  0  0  0  0  0  0  0  0
   -1.9518    4.3577    4.8081 O   0  0  0  0  0  0  0  0  0  0  0  0
   -0.1645    2.2931    5.7560 C   0  0  0  0  0  0  0  0  0  0  0  0
    7.6578    1.8576    6.5510 C   0  0  1  0  0  0  0  0  0  0  0  0
    8.1175    4.4662    4.7169 O   0  0  0  0  0  0  0  0  0  0  0  0
    6.7632    4.2680    6.7025 C   0  0  2  0  0  0  0  0  0  0  0  0
    7.6484    3.1692    7.3082 C   0  0  0  0  0  0  0  0  0  0  0  0
    6.9409    0.7539    7.3002 C   0  0  0  0  0  0  0  0  0  0  0  0
    5.5499    4.4922    7.5260 N   0  0  0  0  0  0  0  0  0  0  0  0
    4.2956    3.8264    7.1592 C   0  0  0  0  0  0  0  0  0  0  0  0
    5.3581    5.9119    7.7809 C   0  0  0  0  0  0  0  0  0  0  0  0
    3.4725    4.4181    6.0344 C   0  0  0  0  0  0  0  0  0  0  0  0
    2.7855    3.5348    5.2553 C   0  0  0  0  0  0  0  0  0  0  0  0
    3.3069    5.7401    5.6485 C   0  0  0  0  0  0  0  0  0  0  0  0
    2.5156    3.8644    3.9333 C   0  0  0  0  0  0  0  0  0  0  0  0
    2.9843    6.1010    4.3044 C   0  0  0  0  0  0  0  0  0  0  0  0
    2.7844    5.1079    3.3955 C   0  0  0  0  0  0  0  0  0  0  0  0
    2.8071    5.4250    1.9809 C   0  0  0  0  0  0  0  0  0  0  0  0
    2.0338    6.4069    1.4180 N   0  0  0  0  0  0  0  0  0  0  0  0
    3.6190    4.8855    0.9983 C   0  0  0  0  0  0  0  0  0  0  0  0
    2.2672    6.4327    0.1139 N   0  0  0  0  0  0  0  0  0  0  0  0
    3.2366    5.5395   -0.1376 N   0  0  0  0  0  0  0  0  0  0  0  0
    3.8686    5.5312   -1.4474 C   0  0  0  0  0  0  0  0  0  0  0  0
    4.6093    6.8520   -1.6570 C   0  0  0  0  0  0  0  0  0  0  0  0
    5.3381    6.9889   -2.9869 C   0  0  0  0  0  0  0  0  0  0  0  0
    4.4055    6.9417   -4.1956 C   0  0  0  0  0  0  0  0  0  0  0  0
    5.1861    7.1966   -5.4827 C   0  0  0  0  0  0  0  0  0  0  0  0
    4.2789    7.1320   -6.7072 C   0  0  0  0  0  0  0  0  0  0  0  0
    5.0676    7.2957   -7.9872 C   0  0  0  0  0  0  0  0  0  0  0  0
    6.2770    7.5049   -8.0394 O   0  0  0  0  0  0  0  0  0  0  0  0
    4.3033    7.1784   -9.1232 N   0  0  0  0  0  0  0  0  0  0  0  0
    4.9895    7.4407  -10.3332 O   0  0  0  0  0  0  0  0  0  0  0  0
    3.2325    1.0823   -0.6052 H   0  0  0  0  0  0  0  0  0  0  0  0
    0.7205   -2.5241   -0.6121 H   0  0  0  0  0  0  0  0  0  0  0  0
    1.7499    0.8499    1.9683 H   0  0  0  0  0  0  0  0  0  0  0  0
    0.4640    1.9958   -1.2062 H   0  0  0  0  0  0  0  0  0  0  0  0
    1.8415    1.7879   -2.2260 H   0  0  0  0  0  0  0  0  0  0  0  0
    1.8571    3.1248   -1.0908 H   0  0  0  0  0  0  0  0  0  0  0  0
    1.2251   -3.4035   -2.8907 H   0  0  0  0  0  0  0  0  0  0  0  0
    2.6477   -2.3453   -2.9817 H   0  0  0  0  0  0  0  0  0  0  0  0
    4.5600    2.1417    1.5701 H   0  0  0  0  0  0  0  0  0  0  0  0
    1.0775   -4.9618   -0.5988 H   0  0  0  0  0  0  0  0  0  0  0  0
    1.7190   -4.5438    1.4419 H   0  0  0  0  0  0  0  0  0  0  0  0
    3.9959   -3.6834   -2.0727 H   0  0  0  0  0  0  0  0  0  0  0  0
    4.5838   -4.4913   -0.6820 H   0  0  0  0  0  0  0  0  0  0  0  0
    4.5256   -2.7083   -0.6880 H   0  0  0  0  0  0  0  0  0  0  0  0
   -0.1648   -1.2539   -2.6180 H   0  0  0  0  0  0  0  0  0  0  0  0
    0.6631   -1.4434   -4.1771 H   0  0  0  0  0  0  0  0  0  0  0  0
    1.3244   -0.3508   -2.9717 H   0  0  0  0  0  0  0  0  0  0  0  0
    0.1096    3.0331    0.3391 H   0  0  0  0  0  0  0  0  0  0  0  0
    3.3130    1.2731    4.0420 H   0  0  0  0  0  0  0  0  0  0  0  0
    3.5603   -0.7189    1.3977 H   0  0  0  0  0  0  0  0  0  0  0  0
    5.2437   -0.3973    1.6688 H   0  0  0  0  0  0  0  0  0  0  0  0
    4.5788    0.1151    0.2268 H   0  0  0  0  0  0  0  0  0  0  0  0
    1.4323   -2.1085    1.3050 H   0  0  0  0  0  0  0  0  0  0  0  0
    4.5812   -3.7803    1.2811 H   0  0  0  0  0  0  0  0  0  0  0  0
   -0.2946    1.1036    1.9283 H   0  0  0  0  0  0  0  0  0  0  0  0
   -1.5721    2.2057    1.4287 H   0  0  0  0  0  0  0  0  0  0  0  0
    3.4880   -6.3256    2.4652 H   0  0  0  0  0  0  0  0  0  0  0  0
    5.1673   -5.8923    2.1601 H   0  0  0  0  0  0  0  0  0  0  0  0
    4.0763   -6.1499    0.7938 H   0  0  0  0  0  0  0  0  0  0  0  0
    0.0370    5.2604    3.4929 H   0  0  0  0  0  0  0  0  0  0  0  0
    6.7729    2.8532    3.4917 H   0  0  0  0  0  0  0  0  0  0  0  0
    3.3433   -1.2691    3.2670 H   0  0  0  0  0  0  0  0  0  0  0  0
    3.6500   -1.8091    4.8140 H   0  0  0  0  0  0  0  0  0  0  0  0
    6.8670    0.7011    3.8014 H   0  0  0  0  0  0  0  0  0  0  0  0
    6.5087   -0.4624    2.8619 H   0  0  0  0  0  0  0  0  0  0  0  0
    6.9236   -0.8749    4.5512 H   0  0  0  0  0  0  0  0  0  0  0  0
    5.5297   -3.0216    4.5063 H   0  0  0  0  0  0  0  0  0  0  0  0
   -2.5886    3.8341    2.9614 H   0  0  0  0  0  0  0  0  0  0  0  0
   -2.2566    5.8168    1.5636 H   0  0  0  0  0  0  0  0  0  0  0  0
   -0.9214    6.8879    1.9276 H   0  0  0  0  0  0  0  0  0  0  0  0
   -2.1318    6.5401    3.1817 H   0  0  0  0  0  0  0  0  0  0  0  0
   -1.5495    0.3521    3.8759 H   0  0  0  0  0  0  0  0  0  0  0  0
   -2.8241    1.2095    2.9961 H   0  0  0  0  0  0  0  0  0  0  0  0
   -2.6138    1.4680    4.7297 H   0  0  0  0  0  0  0  0  0  0  0  0
    6.1301    4.9915    4.7229 H   0  0  0  0  0  0  0  0  0  0  0  0
    3.8112   -0.0553    7.5315 H   0  0  0  0  0  0  0  0  0  0  0  0
    2.9731   -0.9508    6.2955 H   0  0  0  0  0  0  0  0  0  0  0  0
    2.9376    0.8051    6.2901 H   0  0  0  0  0  0  0  0  0  0  0  0
    5.8068   -2.2977    1.5560 H   0  0  0  0  0  0  0  0  0  0  0  0
    6.4701   -3.7419    2.3149 H   0  0  0  0  0  0  0  0  0  0  0  0
    7.0534   -2.2215    2.7993 H   0  0  0  0  0  0  0  0  0  0  0  0
   -2.4078    3.6639    5.3074 H   0  0  0  0  0  0  0  0  0  0  0  0
    0.6874    1.8534    6.2803 H   0  0  0  0  0  0  0  0  0  0  0  0
   -1.0387    1.7234    6.0748 H   0  0  0  0  0  0  0  0  0  0  0  0
   -0.2434    3.3318    6.0845 H   0  0  0  0  0  0  0  0  0  0  0  0
    8.7052    1.5174    6.5601 H   0  0  0  0  0  0  0  0  0  0  0  0
    8.6082    3.6198    4.7996 H   0  0  0  0  0  0  0  0  0  0  0  0
    7.3873    5.1536    6.9141 H   0  0  0  0  0  0  0  0  0  0  0  0
    8.6866    3.5413    7.3030 H   0  0  0  0  0  0  0  0  0  0  0  0
    7.4488    3.0088    8.3773 H   0  0  0  0  0  0  0  0  0  0  0  0
    5.9304    1.0636    7.5653 H   0  0  0  0  0  0  0  0  0  0  0  0
    7.4591    0.5029    8.2306 H   0  0  0  0  0  0  0  0  0  0  0  0
    6.9079   -0.1610    6.7050 H   0  0  0  0  0  0  0  0  0  0  0  0
    3.6543    3.7378    8.0450 H   0  0  0  0  0  0  0  0  0  0  0  0
    4.5525    2.7840    6.9171 H   0  0  0  0  0  0  0  0  0  0  0  0
    4.3896    6.1032    8.2534 H   0  0  0  0  0  0  0  0  0  0  0  0
    5.4371    6.4877    6.8516 H   0  0  0  0  0  0  0  0  0  0  0  0
    6.1190    6.3029    8.4569 H   0  0  0  0  0  0  0  0  0  0  0  0
    2.6507    2.5118    5.5583 H   0  0  0  0  0  0  0  0  0  0  0  0
    3.4698    6.5607    6.3302 H   0  0  0  0  0  0  0  0  0  0  0  0
    2.1543    3.0231    3.3872 H   0  0  0  0  0  0  0  0  0  0  0  0
    2.9432    7.1265    4.0288 H   0  0  0  0  0  0  0  0  0  0  0  0
    4.3870    4.1325    0.9883 H   0  0  0  0  0  0  0  0  0  0  0  0
    3.0756    5.3763   -2.1884 H   0  0  0  0  0  0  0  0  0  0  0  0
    4.5525    4.6764   -1.5019 H   0  0  0  0  0  0  0  0  0  0  0  0
    5.3409    6.9738   -0.8481 H   0  0  0  0  0  0  0  0  0  0  0  0
    3.9046    7.6872   -1.5581 H   0  0  0  0  0  0  0  0  0  0  0  0
    6.1068    6.2127   -3.0725 H   0  0  0  0  0  0  0  0  0  0  0  0
    5.8612    7.9540   -2.9796 H   0  0  0  0  0  0  0  0  0  0  0  0
    3.6150    7.6942   -4.0875 H   0  0  0  0  0  0  0  0  0  0  0  0
    3.9186    5.9623   -4.2570 H   0  0  0  0  0  0  0  0  0  0  0  0
    5.9891    6.4547   -5.5759 H   0  0  0  0  0  0  0  0  0  0  0  0
    5.6703    8.1804   -5.4352 H   0  0  0  0  0  0  0  0  0  0  0  0
    3.5251    7.9260   -6.6574 H   0  0  0  0  0  0  0  0  0  0  0  0
    3.7619    6.1660   -6.7408 H   0  0  0  0  0  0  0  0  0  0  0  0
    3.3009    7.3310   -9.1298 H   0  0  0  0  0  0  0  0  0  0  0  0
    5.9081    7.6041  -10.0214 H   0  0  0  0  0  0  0  0  0  0  0  0
  1  2  2  0  0  0  0
  2  3  1  0  0  0  0
  2  4  1  0  0  0  0
  3  5  1  0  0  0  0
  4  6  1  1  0  0  0
  4  7  1  0  0  0  0
  4 74  1  0  0  0  0
  5  8  1  1  0  0  0
  5  9  1  0  0  0  0
  5 75  1  0  0  0  0
  6 10  1  0  0  0  0
  6 11  1  1  0  0  0
  6 76  1  0  0  0  0
  7 77  1  0  0  0  0
  7 78  1  0  0  0  0
  7 79  1  0  0  0  0
  8 12  1  0  0  0  0
  8 13  1  1  0  0  0
  8 14  1  0  0  0  0
  9 15  1  0  0  0  0
  9 80  1  0  0  0  0
  9 81  1  0  0  0  0
 11 17  1  1  0  0  0
 11 18  1  0  0  0  0
 11 82  1  0  0  0  0
 12 83  1  0  0  0  0
 13 20  1  1  0  0  0
 13 19  1  0  0  0  0
 13 84  1  0  0  0  0
 14 85  1  0  0  0  0
 14 86  1  0  0  0  0
 14 87  1  0  0  0  0
 15 88  1  0  0  0  0
 15 89  1  0  0  0  0
 15 90  1  0  0  0  0
 16 10  1  0  0  0  0
 16 21  1  0  0  0  0
 16 22  1  0  0  0  0
 16 91  1  6  0  0  0
 17 23  1  0  0  0  0
 17 24  1  1  0  0  0
 17 92  1  0  0  0  0
 18 93  1  0  0  0  0
 18 94  1  0  0  0  0
 18 95  1  0  0  0  0
 19 96  1  0  0  0  0
 20 25  1  0  0  0  0
 20 26  1  0  0  0  0
 20 97  1  6  0  0  0
 21 27  1  0  0  0  0
 22 28  1  0  0  0  0
 22 98  1  0  0  0  0
 22 99  1  0  0  0  0
 24 30  1  1  0  0  0
 24 31  1  0  0  0  0
 24 32  1  0  0  0  0
 25 33  2  0  0  0  0
 25 34  1  0  0  0  0
 26100  1  0  0  0  0
 26101  1  0  0  0  0
 26102  1  0  0  0  0
 27 35  1  1  0  0  0
 27 36  1  0  0  0  0
 27103  1  0  0  0  0
 28 37  1  0  0  0  0
 28 38  1  0  0  0  0
 28 35  1  1  0  0  0
 29 23  1  0  0  0  0
 29 39  1  0  0  0  0
 29 40  1  1  0  0  0
 29104  1  0  0  0  0
 30 41  1  0  0  0  0
 31 34  1  0  0  0  0
 31105  1  0  0  0  0
 31106  1  0  0  0  0
 32107  1  0  0  0  0
 32108  1  0  0  0  0
 32109  1  0  0  0  0
 34 42  1  0  0  0  0
 34110  1  1  0  0  0
 35 43  1  0  0  0  0
 35111  1  6  0  0  0
 36112  1  0  0  0  0
 36113  1  0  0  0  0
 36114  1  0  0  0  0
 37 44  1  0  0  0  0
 38115  1  0  0  0  0
 38116  1  0  0  0  0
 38117  1  0  0  0  0
 39 45  1  0  0  0  0
 40 47  1  1  0  0  0
 40 46  1  0  0  0  0
 40118  1  0  0  0  0
 41119  1  0  0  0  0
 41120  1  0  0  0  0
 41121  1  0  0  0  0
 42122  1  0  0  0  0
 42123  1  0  0  0  0
 42124  1  0  0  0  0
 43125  1  0  0  0  0
 44126  1  0  0  0  0
 44127  1  0  0  0  0
 44128  1  0  0  0  0
 45 48  1  0  0  0  0
 45 49  1  0  0  0  0
 45129  1  1  0  0  0
 46130  1  0  0  0  0
 47 48  1  0  0  0  0
 47 50  1  0  0  0  0
 47131  1  1  0  0  0
 48132  1  0  0  0  0
 48133  1  0  0  0  0
 49134  1  0  0  0  0
 49135  1  0  0  0  0
 49136  1  0  0  0  0
 50 51  1  0  0  0  0
 50 52  1  0  0  0  0
 51 53  1  0  0  0  0
 51137  1  0  0  0  0
 51138  1  0  0  0  0
 52139  1  0  0  0  0
 52140  1  0  0  0  0
 52141  1  0  0  0  0
 53 54  2  0  0  0  0
 53 55  1  0  0  0  0
 54 56  1  0  0  0  0
 54142  1  0  0  0  0
 55 57  2  0  0  0  0
 55143  1  0  0  0  0
 56 58  2  0  0  0  0
 56144  1  0  0  0  0
 57 58  1  0  0  0  0
 57145  1  0  0  0  0
 58 59  1  0  0  0  0
 59 60  1  0  0  0  0
 59 61  2  0  0  0  0
 60 62  2  0  0  0  0
 61 63  1  0  0  0  0
 61146  1  0  0  0  0
 62 63  1  0  0  0  0
 63 64  1  0  0  0  0
 64 65  1  0  0  0  0
 64147  1  0  0  0  0
 64148  1  0  0  0  0
 65 66  1  0  0  0  0
 65149  1  0  0  0  0
 65150  1  0  0  0  0
 66 67  1  0  0  0  0
 66151  1  0  0  0  0
 66152  1  0  0  0  0
 67 68  1  0  0  0  0
 67153  1  0  0  0  0
 67154  1  0  0  0  0
 68 69  1  0  0  0  0
 68155  1  0  0  0  0
 68156  1  0  0  0  0
 69 70  1  0  0  0  0
 69157  1  0  0  0  0
 69158  1  0  0  0  0
 70 71  2  0  0  0  0
 70 72  1  0  0  0  0
 72 73  1  0  0  0  0
 72159  1  0  0  0  0
 73160  1  0  0  0  0
M  END
>  <Molecule Name>
2337442

>  <MolRegNo>
2337442

>  <m>
=

>  <Value>
207

>  <Unit>
nM

>  <Type>
IC50

>  <pValue>
6.68

>  <Ligand Efficiency>
0

>  <Binding Efficiency>
6.46

>  <Surface Efficiency>
0

>  <Assay Index>
977530

>  <Assay Category>


>  <Assay Organism>
Homo sapiens

>  <Target ID>
12697

>  <Target Name>
Histone deacetylase 1

>  <Target Organism>
Homo sapiens

>  <Target Description>
Target is a single protein chain

>  <Sequence Accession>
Q13547

>  <Reference>
Bioorg. Med. Chem. 23 (24), 7543-7564 (2015)

>  <Pubmed ID>
26585275

>  <DOI>
10.1016/j.bmc.2015.10.045

$$$$
2337386
 OpenBabel03252423453D

157161  0  0  0  0  0  0  0  0999 V2000
    0.6498   -0.4830    0.3448 O   0  0  0  0  0  0  0  0  0  0  0  0
    1.7716   -0.2741   -0.0846 C   0  0  0  0  0  0  0  0  0  0  0  0
    2.5607   -1.2191   -0.6498 O   0  0  0  0  0  0  0  0  0  0  0  0
    2.4738    1.0602   -0.0662 C   0  0  2  0  0  0  0  0  0  0  0  0
    1.9386   -2.4773   -0.9900 C   0  0  2  0  0  0  0  0  0  0  0  0
    2.4816    1.5841    1.4129 C   0  0  2  0  0  0  0  0  0  0  0  0
    1.9235    1.8755   -1.2136 C   0  0  0  0  0  0  0  0  0  0  0  0
    2.7537   -3.6972   -0.4102 C   0  0  2  0  0  0  0  0  0  0  0  0
    1.8381   -2.4711   -2.5311 C   0  0  0  0  0  0  0  0  0  0  0  0
    2.1729    3.0309    1.3767 O   0  0  0  0  0  0  0  0  0  0  0  0
    4.0042    1.0539    2.1298 C   0  0  1  0  0  0  0  0  0  0  0  0
    2.1670   -4.9069   -0.9371 O   0  0  0  0  0  0  0  0  0  0  0  0
    2.7000   -3.8626    1.1864 C   0  0  2  0  0  0  0  0  0  0  0  0
    4.1846   -3.6498   -0.9872 C   0  0  0  0  0  0  0  0  0  0  0  0
    1.0040   -1.3119   -3.0651 C   0  0  0  0  0  0  0  0  0  0  0  0
    0.7586    3.4362    1.2864 C   0  0  2  0  0  0  0  0  0  0  0  0
    4.1968    0.8002    3.8951 C   0  0  2  0  0  0  0  0  0  0  0  0
    4.4548   -0.2211    1.4365 C   0  0  0  0  0  0  0  0  0  0  0  0
    2.2659   -2.6715    1.8381 O   0  0  0  0  0  0  0  0  0  0  0  0
    4.0411   -4.3238    1.8137 C   0  0  1  0  0  0  0  0  0  0  0  0
    0.0818    3.3767    0.0248 O   0  0  0  0  0  0  0  0  0  0  0  0
    0.3863    4.8174    1.8357 C   0  0  0  0  0  0  0  0  0  0  0  0
    4.9475    1.8736    4.7268 O   0  0  0  0  0  0  0  0  0  0  0  0
    4.8787   -0.4235    4.4583 C   0  0  1  0  0  0  0  0  0  0  0  0
    4.2702   -3.9726    3.2650 C   0  0  0  0  0  0  0  0  0  0  0  0
    4.3705   -5.8048    1.7415 C   0  0  0  0  0  0  0  0  0  0  0  0
    0.2278    4.4722   -0.9027 C   0  0  2  0  0  0  0  0  0  0  0  0
    0.7408    6.0616    0.9623 C   0  0  2  0  0  0  0  0  0  0  0  0
    5.2070    2.3949    6.0903 C   0  0  2  0  0  0  0  0  0  0  0  0
    4.4557   -0.3968    5.8416 O   0  0  0  0  0  0  0  0  0  0  0  0
    4.3869   -1.7612    3.9872 C   0  0  0  0  0  0  0  0  0  0  0  0
    6.4073   -0.1608    4.2847 C   0  0  0  0  0  0  0  0  0  0  0  0
    3.6066   -4.5010    4.1632 O   0  0  0  0  0  0  0  0  0  0  0  0
    5.3021   -2.8906    3.5915 C   0  0  2  0  0  0  0  0  0  0  0  0
   -0.0529    5.8815   -0.3503 C   0  0  1  0  0  0  0  0  0  0  0  0
   -0.7451    4.1777   -2.0474 C   0  0  0  0  0  0  0  0  0  0  0  0
    2.1510    6.1316    0.7067 O   0  0  0  0  0  0  0  0  0  0  0  0
    0.2709    7.2763    1.7916 C   0  0  0  0  0  0  0  0  0  0  0  0
    5.9466    1.5683    6.9797 O   0  0  0  0  0  0  0  0  0  0  0  0
    4.3272    3.4250    6.9398 C   0  0  2  0  0  0  0  0  0  0  0  0
    3.0773   -0.6389    6.2069 C   0  0  0  0  0  0  0  0  0  0  0  0
    6.3821   -2.6925    2.5281 C   0  0  0  0  0  0  0  0  0  0  0  0
    0.2303    6.8375   -1.3837 O   0  0  0  0  0  0  0  0  0  0  0  0
    2.6447    7.2665   -0.0073 C   0  0  0  0  0  0  0  0  0  0  0  0
    5.2391    0.9583    8.0592 C   0  0  1  0  0  0  0  0  0  0  0  0
    5.0615    4.0022    8.0606 O   0  0  0  0  0  0  0  0  0  0  0  0
    3.1156    2.7282    7.5313 C   0  0  2  0  0  0  0  0  0  0  0  0
    3.7444    1.4543    8.3380 C   0  0  0  0  0  0  0  0  0  0  0  0
    5.7028   -0.5288    8.0999 C   0  0  0  0  0  0  0  0  0  0  0  0
    1.9805    2.6548    6.5353 N   0  0  0  0  0  0  0  0  0  0  0  0
    2.3284    2.6182    5.0931 C   0  0  0  0  0  0  0  0  0  0  0  0
    0.8303    3.5153    6.7333 C   0  0  0  0  0  0  0  0  0  0  0  0
    3.0187    3.7191    4.2777 C   0  0  0  0  0  0  0  0  0  0  0  0
    4.1404    3.6042    3.3869 C   0  0  0  0  0  0  0  0  0  0  0  0
    2.5259    4.9737    4.2815 C   0  0  0  0  0  0  0  0  0  0  0  0
    4.7968    4.5543    2.6473 C   0  0  0  0  0  0  0  0  0  0  0  0
    3.1516    5.9744    3.6014 C   0  0  0  0  0  0  0  0  0  0  0  0
    4.2744    5.7608    2.8591 C   0  0  0  0  0  0  0  0  0  0  0  0
    4.9809    6.8874    2.4179 C   0  0  0  0  0  0  0  0  0  0  0  0
    4.3567    8.0264    2.0835 N   0  0  0  0  0  0  0  0  0  0  0  0
    6.3332    7.0550    2.6203 C   0  0  0  0  0  0  0  0  0  0  0  0
    5.2847    8.9374    1.9328 N   0  0  0  0  0  0  0  0  0  0  0  0
    6.4332    8.3730    2.3491 N   0  0  0  0  0  0  0  0  0  0  0  0
    7.5959    9.1844    2.4964 C   0  0  0  0  0  0  0  0  0  0  0  0
    8.7801    8.6161    1.7377 C   0  0  0  0  0  0  0  0  0  0  0  0
    8.5551    8.4541    0.2258 C   0  0  0  0  0  0  0  0  0  0  0  0
    8.1396    9.7623   -0.4383 C   0  0  0  0  0  0  0  0  0  0  0  0
    8.1487    9.6761   -1.9602 C   0  0  0  0  0  0  0  0  0  0  0  0
    7.8387   11.0258   -2.5724 C   0  0  0  0  0  0  0  0  0  0  0  0
    7.6045   12.0473   -1.9305 O   0  0  0  0  0  0  0  0  0  0  0  0
    7.8679   11.0265   -3.9471 N   0  0  0  0  0  0  0  0  0  0  0  0
    7.4958   12.2539   -4.5474 O   0  0  0  0  0  0  0  0  0  0  0  0
    3.5031    0.9679   -0.4037 H   0  0  0  0  0  0  0  0  0  0  0  0
    0.9136   -2.5499   -0.6055 H   0  0  0  0  0  0  0  0  0  0  0  0
    1.7128    1.0959    2.0252 H   0  0  0  0  0  0  0  0  0  0  0  0
    0.8367    1.8221   -1.2577 H   0  0  0  0  0  0  0  0  0  0  0  0
    2.2537    1.4918   -2.1831 H   0  0  0  0  0  0  0  0  0  0  0  0
    2.3251    2.8855   -1.1623 H   0  0  0  0  0  0  0  0  0  0  0  0
    1.4118   -3.4129   -2.8851 H   0  0  0  0  0  0  0  0  0  0  0  0
    2.8339   -2.3573   -2.9740 H   0  0  0  0  0  0  0  0  0  0  0  0
    4.7409    1.7687    1.7562 H   0  0  0  0  0  0  0  0  0  0  0  0
    1.2517   -4.9628   -0.6056 H   0  0  0  0  0  0  0  0  0  0  0  0
    1.9457   -4.6181    1.4394 H   0  0  0  0  0  0  0  0  0  0  0  0
    4.1816   -3.7075   -2.0787 H   0  0  0  0  0  0  0  0  0  0  0  0
    4.7770   -4.5213   -0.6956 H   0  0  0  0  0  0  0  0  0  0  0  0
    4.7180   -2.7400   -0.6913 H   0  0  0  0  0  0  0  0  0  0  0  0
    0.0370   -1.2432   -2.5593 H   0  0  0  0  0  0  0  0  0  0  0  0
    0.8329   -1.4311   -4.1381 H   0  0  0  0  0  0  0  0  0  0  0  0
    1.5297   -0.3642   -2.9358 H   0  0  0  0  0  0  0  0  0  0  0  0
    0.2235    2.7198    1.9228 H   0  0  0  0  0  0  0  0  0  0  0  0
    3.1316    0.6637    4.1135 H   0  0  0  0  0  0  0  0  0  0  0  0
    3.6946   -0.9847    1.4872 H   0  0  0  0  0  0  0  0  0  0  0  0
    5.3622   -0.5588    1.8885 H   0  0  0  0  0  0  0  0  0  0  0  0
    4.7526   -0.1052    0.3946 H   0  0  0  0  0  0  0  0  0  0  0  0
    1.5027   -2.2672    1.3881 H   0  0  0  0  0  0  0  0  0  0  0  0
    4.8153   -3.8138    1.2649 H   0  0  0  0  0  0  0  0  0  0  0  0
    0.7122    4.9286    2.8556 H   0  0  0  0  0  0  0  0  0  0  0  0
   -0.7159    4.8209    1.9110 H   0  0  0  0  0  0  0  0  0  0  0  0
    3.7211   -6.3893    2.4008 H   0  0  0  0  0  0  0  0  0  0  0  0
    5.4000   -5.9532    2.0993 H   0  0  0  0  0  0  0  0  0  0  0  0
    4.3037   -6.1963    0.7290 H   0  0  0  0  0  0  0  0  0  0  0  0
    1.2373    4.4755   -1.3205 H   0  0  0  0  0  0  0  0  0  0  0  0
    5.9961    3.1081    5.8115 H   0  0  0  0  0  0  0  0  0  0  0  0
    3.5327   -1.6070    3.3296 H   0  0  0  0  0  0  0  0  0  0  0  0
    3.8829   -2.2338    4.8410 H   0  0  0  0  0  0  0  0  0  0  0  0
    6.7862    0.7490    4.7590 H   0  0  0  0  0  0  0  0  0  0  0  0
    6.6592    0.0049    3.2296 H   0  0  0  0  0  0  0  0  0  0  0  0
    7.0221   -0.9517    4.7002 H   0  0  0  0  0  0  0  0  0  0  0  0
    5.8325   -3.2167    4.4948 H   0  0  0  0  0  0  0  0  0  0  0  0
   -1.1197    5.9961   -0.1370 H   0  0  0  0  0  0  0  0  0  0  0  0
   -1.7721    4.1373   -1.6664 H   0  0  0  0  0  0  0  0  0  0  0  0
   -0.5389    3.2007   -2.4936 H   0  0  0  0  0  0  0  0  0  0  0  0
   -0.6944    4.9328   -2.8370 H   0  0  0  0  0  0  0  0  0  0  0  0
    0.8818    7.3836    2.6933 H   0  0  0  0  0  0  0  0  0  0  0  0
   -0.7654    7.1544    2.1256 H   0  0  0  0  0  0  0  0  0  0  0  0
    0.3394    8.2249    1.2567 H   0  0  0  0  0  0  0  0  0  0  0  0
    4.0233    4.3084    6.3843 H   0  0  0  0  0  0  0  0  0  0  0  0
    3.0756   -1.2723    7.0982 H   0  0  0  0  0  0  0  0  0  0  0  0
    2.4440   -1.0858    5.4409 H   0  0  0  0  0  0  0  0  0  0  0  0
    2.5812    0.2760    6.4996 H   0  0  0  0  0  0  0  0  0  0  0  0
    6.0060   -2.3383    1.5666 H   0  0  0  0  0  0  0  0  0  0  0  0
    6.8778   -3.6450    2.3265 H   0  0  0  0  0  0  0  0  0  0  0  0
    7.1715   -2.0031    2.8236 H   0  0  0  0  0  0  0  0  0  0  0  0
    0.3705    7.7107   -0.9843 H   0  0  0  0  0  0  0  0  0  0  0  0
    3.7352    7.2523   -0.0010 H   0  0  0  0  0  0  0  0  0  0  0  0
    2.3066    8.2115    0.4308 H   0  0  0  0  0  0  0  0  0  0  0  0
    2.4047    7.2265   -1.0677 H   0  0  0  0  0  0  0  0  0  0  0  0
    5.7828    1.3212    8.9443 H   0  0  0  0  0  0  0  0  0  0  0  0
    5.8022    3.4040    8.2610 H   0  0  0  0  0  0  0  0  0  0  0  0
    2.6968    3.3300    8.3540 H   0  0  0  0  0  0  0  0  0  0  0  0
    3.8355    1.8533    9.3668 H   0  0  0  0  0  0  0  0  0  0  0  0
    3.0362    0.6394    8.5122 H   0  0  0  0  0  0  0  0  0  0  0  0
    5.1402   -1.2679    7.5352 H   0  0  0  0  0  0  0  0  0  0  0  0
    5.7268   -0.9414    9.1064 H   0  0  0  0  0  0  0  0  0  0  0  0
    6.7143   -0.5967    7.6649 H   0  0  0  0  0  0  0  0  0  0  0  0
    1.5160    2.1795    4.5011 H   0  0  0  0  0  0  0  0  0  0  0  0
    3.0015    1.8329    5.2721 H   0  0  0  0  0  0  0  0  0  0  0  0
    0.0627    3.2739    5.9810 H   0  0  0  0  0  0  0  0  0  0  0  0
    1.0750    4.5731    6.6353 H   0  0  0  0  0  0  0  0  0  0  0  0
    0.3605    3.3603    7.7046 H   0  0  0  0  0  0  0  0  0  0  0  0
    4.8035    2.7685    3.1958 H   0  0  0  0  0  0  0  0  0  0  0  0
    1.6106    5.2033    4.8135 H   0  0  0  0  0  0  0  0  0  0  0  0
    5.6845    4.3110    2.0497 H   0  0  0  0  0  0  0  0  0  0  0  0
    2.7527    6.9816    3.6681 H   0  0  0  0  0  0  0  0  0  0  0  0
    7.1269    6.4379    2.9911 H   0  0  0  0  0  0  0  0  0  0  0  0
    7.7840    9.2564    3.5666 H   0  0  0  0  0  0  0  0  0  0  0  0
    7.3323   10.1874    2.1379 H   0  0  0  0  0  0  0  0  0  0  0  0
    9.0476    7.6333    2.1496 H   0  0  0  0  0  0  0  0  0  0  0  0
    9.6405    9.2731    1.9125 H   0  0  0  0  0  0  0  0  0  0  0  0
    7.7985    7.6852    0.0247 H   0  0  0  0  0  0  0  0  0  0  0  0
    9.4884    8.0887   -0.2158 H   0  0  0  0  0  0  0  0  0  0  0  0
    8.8156   10.5610   -0.1106 H   0  0  0  0  0  0  0  0  0  0  0  0
    7.1307   10.0489   -0.1163 H   0  0  0  0  0  0  0  0  0  0  0  0
    7.4052    8.9490   -2.3062 H   0  0  0  0  0  0  0  0  0  0  0  0
    9.1365    9.3584   -2.3121 H   0  0  0  0  0  0  0  0  0  0  0  0
    7.6886   10.1888   -4.4899 H   0  0  0  0  0  0  0  0  0  0  0  0
    7.3691   12.8387   -3.7664 H   0  0  0  0  0  0  0  0  0  0  0  0
  1  2  2  0  0  0  0
  2  3  1  0  0  0  0
  2  4  1  0  0  0  0
  3  5  1  0  0  0  0
  4  6  1  1  0  0  0
  4  7  1  0  0  0  0
  4 73  1  0  0  0  0
  5  8  1  1  0  0  0
  5  9  1  0  0  0  0
  5 74  1  0  0  0  0
  6 10  1  0  0  0  0
  6 11  1  1  0  0  0
  6 75  1  0  0  0  0
  7 76  1  0  0  0  0
  7 77  1  0  0  0  0
  7 78  1  0  0  0  0
  8 12  1  0  0  0  0
  8 13  1  1  0  0  0
  8 14  1  0  0  0  0
  9 15  1  0  0  0  0
  9 79  1  0  0  0  0
  9 80  1  0  0  0  0
 11 17  1  1  0  0  0
 11 18  1  0  0  0  0
 11 81  1  0  0  0  0
 12 82  1  0  0  0  0
 13 20  1  1  0  0  0
 13 19  1  0  0  0  0
 13 83  1  0  0  0  0
 14 84  1  0  0  0  0
 14 85  1  0  0  0  0
 14 86  1  0  0  0  0
 15 87  1  0  0  0  0
 15 88  1  0  0  0  0
 15 89  1  0  0  0  0
 16 10  1  0  0  0  0
 16 21  1  0  0  0  0
 16 22  1  0  0  0  0
 16 90  1  1  0  0  0
 17 23  1  0  0  0  0
 17 24  1  1  0  0  0
 17 91  1  0  0  0  0
 18 92  1  0  0  0  0
 18 93  1  0  0  0  0
 18 94  1  0  0  0  0
 19 95  1  0  0  0  0
 20 25  1  0  0  0  0
 20 26  1  0  0  0  0
 20 96  1  6  0  0  0
 21 27  1  0  0  0  0
 22 28  1  0  0  0  0
 22 97  1  0  0  0  0
 22 98  1  0  0  0  0
 24 30  1  1  0  0  0
 24 31  1  0  0  0  0
 24 32  1  0  0  0  0
 25 33  2  0  0  0  0
 25 34  1  0  0  0  0
 26 99  1  0  0  0  0
 26100  1  0  0  0  0
 26101  1  0  0  0  0
 27 35  1  1  0  0  0
 27 36  1  0  0  0  0
 27102  1  0  0  0  0
 28 37  1  0  0  0  0
 28 38  1  0  0  0  0
 28 35  1  6  0  0  0
 29 23  1  0  0  0  0
 29 39  1  0  0  0  0
 29 40  1  1  0  0  0
 29103  1  0  0  0  0
 30 41  1  0  0  0  0
 31 34  1  0  0  0  0
 31104  1  0  0  0  0
 31105  1  0  0  0  0
 32106  1  0  0  0  0
 32107  1  0  0  0  0
 32108  1  0  0  0  0
 34 42  1  0  0  0  0
 34109  1  1  0  0  0
 35 43  1  0  0  0  0
 35110  1  1  0  0  0
 36111  1  0  0  0  0
 36112  1  0  0  0  0
 36113  1  0  0  0  0
 37 44  1  0  0  0  0
 38114  1  0  0  0  0
 38115  1  0  0  0  0
 38116  1  0  0  0  0
 39 45  1  0  0  0  0
 40 47  1  1  0  0  0
 40 46  1  0  0  0  0
 40117  1  0  0  0  0
 41118  1  0  0  0  0
 41119  1  0  0  0  0
 41120  1  0  0  0  0
 42121  1  0  0  0  0
 42122  1  0  0  0  0
 42123  1  0  0  0  0
 43124  1  0  0  0  0
 44125  1  0  0  0  0
 44126  1  0  0  0  0
 44127  1  0  0  0  0
 45 48  1  0  0  0  0
 45 49  1  0  0  0  0
 45128  1  1  0  0  0
 46129  1  0  0  0  0
 47 48  1  0  0  0  0
 47 50  1  0  0  0  0
 47130  1  1  0  0  0
 48131  1  0  0  0  0
 48132  1  0  0  0  0
 49133  1  0  0  0  0
 49134  1  0  0  0  0
 49135  1  0  0  0  0
 50 51  1  0  0  0  0
 50 52  1  0  0  0  0
 51 53  1  0  0  0  0
 51136  1  0  0  0  0
 51137  1  0  0  0  0
 52138  1  0  0  0  0
 52139  1  0  0  0  0
 52140  1  0  0  0  0
 53 54  2  0  0  0  0
 53 55  1  0  0  0  0
 54 56  1  0  0  0  0
 54141  1  0  0  0  0
 55 57  2  0  0  0  0
 55142  1  0  0  0  0
 56 58  2  0  0  0  0
 56143  1  0  0  0  0
 57 58  1  0  0  0  0
 57144  1  0  0  0  0
 58 59  1  0  0  0  0
 59 60  1  0  0  0  0
 59 61  2  0  0  0  0
 60 62  2  0  0  0  0
 61 63  1  0  0  0  0
 61145  1  0  0  0  0
 62 63  1  0  0  0  0
 63 64  1  0  0  0  0
 64 65  1  0  0  0  0
 64146  1  0  0  0  0
 64147  1  0  0  0  0
 65 66  1  0  0  0  0
 65148  1  0  0  0  0
 65149  1  0  0  0  0
 66 67  1  0  0  0  0
 66150  1  0  0  0  0
 66151  1  0  0  0  0
 67 68  1  0  0  0  0
 67152  1  0  0  0  0
 67153  1  0  0  0  0
 68 69  1  0  0  0  0
 68154  1  0  0  0  0
 68155  1  0  0  0  0
 69 70  2  0  0  0  0
 69 71  1  0  0  0  0
 71 72  1  0  0  0  0
 71156  1  0  0  0  0
 72157  1  0  0  0  0
M  END
>  <Molecule Name>
2337386

>  <MolRegNo>
2337386

>  <m>
=

>  <Value>
533

>  <Unit>
nM

>  <Type>
IC50

>  <pValue>
6.27

>  <Ligand Efficiency>
0

>  <Binding Efficiency>
6.15

>  <Surface Efficiency>
0

>  <Assay Index>
977530

>  <Assay Category>


>  <Assay Organism>
Homo sapiens

>  <Target ID>
12697

>  <Target Name>
Histone deacetylase 1

>  <Target Organism>
Homo sapiens

>  <Target Description>
Target is a single protein chain

>  <Sequence Accession>
Q13547

>  <Reference>
Bioorg. Med. Chem. 23 (24), 7543-7564 (2015)

>  <Pubmed ID>
26585275

>  <DOI>
10.1016/j.bmc.2015.10.045

$$$$
2337331
 OpenBabel03252423453D

154158  0  0  0  0  0  0  0  0999 V2000
    0.4264   -0.4269    0.0864 O   0  0  0  0  0  0  0  0  0  0  0  0
    1.5864   -0.2019   -0.2428 C   0  0  0  0  0  0  0  0  0  0  0  0
    2.4365   -1.1595   -0.6992 O   0  0  0  0  0  0  0  0  0  0  0  0
    2.2279    1.1633   -0.1784 C   0  0  2  0  0  0  0  0  0  0  0  0
    1.8318   -2.4309   -1.0334 C   0  0  2  0  0  0  0  0  0  0  0  0
    2.2969    1.5356    1.3652 C   0  0  2  0  0  0  0  0  0  0  0  0
    1.4847    2.0160   -1.2153 C   0  0  0  0  0  0  0  0  0  0  0  0
    2.6449   -3.6407   -0.4312 C   0  0  2  0  0  0  0  0  0  0  0  0
    1.7181   -2.4500   -2.5717 C   0  0  0  0  0  0  0  0  0  0  0  0
    1.6578    2.7910    1.6004 O   0  0  0  0  0  0  0  0  0  0  0  0
    3.9463    1.3783    1.9665 C   0  0  1  0  0  0  0  0  0  0  0  0
    2.0697   -4.8635   -0.9414 O   0  0  0  0  0  0  0  0  0  0  0  0
    2.5662   -3.7615    1.1663 C   0  0  2  0  0  0  0  0  0  0  0  0
    4.0788   -3.6005   -0.9954 C   0  0  0  0  0  0  0  0  0  0  0  0
    0.8793   -1.3000   -3.1197 C   0  0  0  0  0  0  0  0  0  0  0  0
    0.2819    3.1152    1.3980 C   0  0  2  0  0  0  0  0  0  0  0  0
    4.3515    1.2709    3.6424 C   0  0  2  0  0  0  0  0  0  0  0  0
    4.3877    0.0868    1.2749 C   0  0  0  0  0  0  0  0  0  0  0  0
    2.1838   -2.5244    1.7657 O   0  0  0  0  0  0  0  0  0  0  0  0
    3.8757   -4.2236    1.8400 C   0  0  1  0  0  0  0  0  0  0  0  0
   -0.0644    4.4796    1.6151 O   0  0  0  0  0  0  0  0  0  0  0  0
   -0.7134    2.1521    2.0145 C   0  0  0  0  0  0  0  0  0  0  0  0
    5.0299    2.4479    4.3496 O   0  0  0  0  0  0  0  0  0  0  0  0
    4.8841   -0.0763    4.2964 C   0  0  1  0  0  0  0  0  0  0  0  0
    4.0432   -3.7752    3.2879 C   0  0  0  0  0  0  0  0  0  0  0  0
    4.2141   -5.7072    1.7986 C   0  0  0  0  0  0  0  0  0  0  0  0
   -0.7671    4.9050    2.7785 C   0  0  2  0  0  0  0  0  0  0  0  0
   -1.0717    2.4346    3.4804 C   0  0  2  0  0  0  0  0  0  0  0  0
    6.4286    2.8484    4.5253 C   0  0  2  0  0  0  0  0  0  0  0  0
    4.7947    0.0323    5.7507 O   0  0  0  0  0  0  0  0  0  0  0  0
    4.2022   -1.4101    3.9254 C   0  0  0  0  0  0  0  0  0  0  0  0
    6.3594   -0.1668    3.9238 C   0  0  0  0  0  0  0  0  0  0  0  0
    3.3739   -4.2739    4.1970 O   0  0  0  0  0  0  0  0  0  0  0  0
    5.0570   -2.6656    3.5862 C   0  0  2  0  0  0  0  0  0  0  0  0
   -1.6722    3.8685    3.4907 C   0  0  1  0  0  0  0  0  0  0  0  0
   -1.6396    6.0759    2.2760 C   0  0  0  0  0  0  0  0  0  0  0  0
    0.0687    2.2709    4.3392 O   0  0  0  0  0  0  0  0  0  0  0  0
   -2.0387    1.2918    3.8104 C   0  0  0  0  0  0  0  0  0  0  0  0
    7.4040    1.9851    5.1661 O   0  0  0  0  0  0  0  0  0  0  0  0
    6.7416    4.2507    5.1604 C   0  0  2  0  0  0  0  0  0  0  0  0
    3.5606   -0.0508    6.4691 C   0  0  0  0  0  0  0  0  0  0  0  0
    6.1757   -2.6584    2.5239 C   0  0  0  0  0  0  0  0  0  0  0  0
   -1.9971    4.3799    4.7901 O   0  0  0  0  0  0  0  0  0  0  0  0
   -0.1599    2.3604    5.7475 C   0  0  0  0  0  0  0  0  0  0  0  0
    7.6765    1.9240    6.5552 C   0  0  1  0  0  0  0  0  0  0  0  0
    8.1340    4.5666    4.7692 O   0  0  0  0  0  0  0  0  0  0  0  0
    6.7651    4.3276    6.7226 C   0  0  2  0  0  0  0  0  0  0  0  0
    7.6639    3.2338    7.3173 C   0  0  0  0  0  0  0  0  0  0  0  0
    6.9251    0.8341    7.2880 C   0  0  0  0  0  0  0  0  0  0  0  0
    5.5473    4.5440    7.5436 N   0  0  0  0  0  0  0  0  0  0  0  0
    4.3119    3.8391    7.1981 C   0  0  0  0  0  0  0  0  0  0  0  0
    5.3324    5.9632    7.7952 C   0  0  0  0  0  0  0  0  0  0  0  0
    3.4912    4.3917    6.0671 C   0  0  0  0  0  0  0  0  0  0  0  0
    2.8201    3.5050    5.2814 C   0  0  0  0  0  0  0  0  0  0  0  0
    3.2998    5.6887    5.6679 C   0  0  0  0  0  0  0  0  0  0  0  0
    2.5574    3.7975    3.9441 C   0  0  0  0  0  0  0  0  0  0  0  0
    2.9874    6.0026    4.3471 C   0  0  0  0  0  0  0  0  0  0  0  0
    2.8070    5.0215    3.4151 C   0  0  0  0  0  0  0  0  0  0  0  0
    2.7673    5.3573    1.9852 C   0  0  0  0  0  0  0  0  0  0  0  0
    3.0864    4.5693    0.9021 N   0  0  0  0  0  0  0  0  0  0  0  0
    2.4566    6.6049    1.5097 C   0  0  0  0  0  0  0  0  0  0  0  0
    2.7266    5.2094   -0.2054 N   0  0  0  0  0  0  0  0  0  0  0  0
    2.3854    6.4494    0.1680 N   0  0  0  0  0  0  0  0  0  0  0  0
    2.2257    7.5108   -0.7952 C   0  0  0  0  0  0  0  0  0  0  0  0
    3.5551    7.8124   -1.4840 C   0  0  0  0  0  0  0  0  0  0  0  0
    4.0407    6.7252   -2.4478 C   0  0  0  0  0  0  0  0  0  0  0  0
    3.0433    6.4353   -3.5622 C   0  0  0  0  0  0  0  0  0  0  0  0
    3.5410    5.3606   -4.4878 C   0  0  0  0  0  0  0  0  0  0  0  0
    3.7524    5.5714   -5.6779 O   0  0  0  0  0  0  0  0  0  0  0  0
    3.7368    4.1333   -3.8994 N   0  0  0  0  0  0  0  0  0  0  0  0
    4.1318    3.1051   -4.7856 O   0  0  0  0  0  0  0  0  0  0  0  0
    3.2339    1.1398   -0.5982 H   0  0  0  0  0  0  0  0  0  0  0  0
    0.8097   -2.5141   -0.6435 H   0  0  0  0  0  0  0  0  0  0  0  0
    1.7610    0.7912    1.9659 H   0  0  0  0  0  0  0  0  0  0  0  0
    0.3951    1.9373   -1.1430 H   0  0  0  0  0  0  0  0  0  0  0  0
    1.7071    1.6586   -2.2268 H   0  0  0  0  0  0  0  0  0  0  0  0
    1.7928    3.0611   -1.1982 H   0  0  0  0  0  0  0  0  0  0  0  0
    1.2838   -3.3974   -2.9034 H   0  0  0  0  0  0  0  0  0  0  0  0
    2.7110   -2.3499   -3.0245 H   0  0  0  0  0  0  0  0  0  0  0  0
    4.5062    2.2319    1.5707 H   0  0  0  0  0  0  0  0  0  0  0  0
    1.1522   -4.9245   -0.6185 H   0  0  0  0  0  0  0  0  0  0  0  0
    1.7863   -4.4853    1.4359 H   0  0  0  0  0  0  0  0  0  0  0  0
    4.0817   -3.6646   -2.0870 H   0  0  0  0  0  0  0  0  0  0  0  0
    4.6649   -4.4727   -0.6918 H   0  0  0  0  0  0  0  0  0  0  0  0
    4.6109   -2.6896   -0.7022 H   0  0  0  0  0  0  0  0  0  0  0  0
   -0.0849   -1.2257   -2.6095 H   0  0  0  0  0  0  0  0  0  0  0  0
    0.7002   -1.4351   -4.1887 H   0  0  0  0  0  0  0  0  0  0  0  0
    1.4069   -0.3507   -3.0081 H   0  0  0  0  0  0  0  0  0  0  0  0
    0.1121    3.0719    0.3320 H   0  0  0  0  0  0  0  0  0  0  0  0
    3.3419    1.2960    4.0475 H   0  0  0  0  0  0  0  0  0  0  0  0
    3.6103   -0.6683    1.3662 H   0  0  0  0  0  0  0  0  0  0  0  0
    5.2769   -0.3311    1.6753 H   0  0  0  0  0  0  0  0  0  0  0  0
    4.6303    0.1963    0.2201 H   0  0  0  0  0  0  0  0  0  0  0  0
    1.3847   -2.1643    1.3440 H   0  0  0  0  0  0  0  0  0  0  0  0
    4.6596   -3.7442    1.2780 H   0  0  0  0  0  0  0  0  0  0  0  0
   -0.3623    1.1288    1.8905 H   0  0  0  0  0  0  0  0  0  0  0  0
   -1.6308    2.2593    1.4235 H   0  0  0  0  0  0  0  0  0  0  0  0
    3.5791   -6.2885    2.4727 H   0  0  0  0  0  0  0  0  0  0  0  0
    5.2500   -5.8468    2.1410 H   0  0  0  0  0  0  0  0  0  0  0  0
    4.1421   -6.1194    0.7920 H   0  0  0  0  0  0  0  0  0  0  0  0
   -0.0530    5.3349    3.4905 H   0  0  0  0  0  0  0  0  0  0  0  0
    6.7926    2.9321    3.4917 H   0  0  0  0  0  0  0  0  0  0  0  0
    3.3766   -1.2297    3.2451 H   0  0  0  0  0  0  0  0  0  0  0  0
    3.6539   -1.7755    4.7954 H   0  0  0  0  0  0  0  0  0  0  0  0
    6.8576    0.7640    3.8353 H   0  0  0  0  0  0  0  0  0  0  0  0
    6.5322   -0.4030    2.8893 H   0  0  0  0  0  0  0  0  0  0  0  0
    6.9392   -0.8103    4.5843 H   0  0  0  0  0  0  0  0  0  0  0  0
    5.5630   -2.9640    4.5148 H   0  0  0  0  0  0  0  0  0  0  0  0
   -2.6269    3.8239    2.9536 H   0  0  0  0  0  0  0  0  0  0  0  0
   -2.2841    5.7381    1.4531 H   0  0  0  0  0  0  0  0  0  0  0  0
   -1.0216    6.8803    1.8591 H   0  0  0  0  0  0  0  0  0  0  0  0
   -2.2758    6.4979    3.0594 H   0  0  0  0  0  0  0  0  0  0  0  0
   -1.4535    0.3663    3.9283 H   0  0  0  0  0  0  0  0  0  0  0  0
   -2.7598    1.1187    3.0062 H   0  0  0  0  0  0  0  0  0  0  0  0
   -2.5917    1.4461    4.7354 H   0  0  0  0  0  0  0  0  0  0  0  0
    6.1415    5.0580    4.7408 H   0  0  0  0  0  0  0  0  0  0  0  0
    3.7990   -0.0441    7.5394 H   0  0  0  0  0  0  0  0  0  0  0  0
    2.9823   -0.9601    6.3024 H   0  0  0  0  0  0  0  0  0  0  0  0
    2.8973    0.7886    6.3060 H   0  0  0  0  0  0  0  0  0  0  0  0
    5.8540   -2.2363    1.5670 H   0  0  0  0  0  0  0  0  0  0  0  0
    6.5300   -3.6742    2.3302 H   0  0  0  0  0  0  0  0  0  0  0  0
    7.0920   -2.1490    2.8189 H   0  0  0  0  0  0  0  0  0  0  0  0
   -2.4040    3.6721    5.3123 H   0  0  0  0  0  0  0  0  0  0  0  0
    0.7023    1.9429    6.2718 H   0  0  0  0  0  0  0  0  0  0  0  0
   -1.0185    1.7712    6.0733 H   0  0  0  0  0  0  0  0  0  0  0  0
   -0.2626    3.3979    6.0743 H   0  0  0  0  0  0  0  0  0  0  0  0
    8.7183    1.5694    6.5869 H   0  0  0  0  0  0  0  0  0  0  0  0
    8.6189    3.7153    4.8067 H   0  0  0  0  0  0  0  0  0  0  0  0
    7.3796    5.2179    6.9428 H   0  0  0  0  0  0  0  0  0  0  0  0
    8.6993    3.6130    7.3029 H   0  0  0  0  0  0  0  0  0  0  0  0
    7.4735    3.0691    8.3875 H   0  0  0  0  0  0  0  0  0  0  0  0
    5.9067    1.1506    7.5052 H   0  0  0  0  0  0  0  0  0  0  0  0
    7.3992    0.5983    8.2452 H   0  0  0  0  0  0  0  0  0  0  0  0
    6.9137   -0.0895    6.7064 H   0  0  0  0  0  0  0  0  0  0  0  0
    3.6650    3.7668    8.0782 H   0  0  0  0  0  0  0  0  0  0  0  0
    4.5871    2.7999    6.9771 H   0  0  0  0  0  0  0  0  0  0  0  0
    4.3466    6.1437    8.2394 H   0  0  0  0  0  0  0  0  0  0  0  0
    5.4296    6.5447    6.8702 H   0  0  0  0  0  0  0  0  0  0  0  0
    6.0661    6.3600    8.4982 H   0  0  0  0  0  0  0  0  0  0  0  0
    2.6993    2.4900    5.5955 H   0  0  0  0  0  0  0  0  0  0  0  0
    3.4436    6.5433    6.3028 H   0  0  0  0  0  0  0  0  0  0  0  0
    2.2228    2.9406    3.4140 H   0  0  0  0  0  0  0  0  0  0  0  0
    2.9246    7.0419    4.0707 H   0  0  0  0  0  0  0  0  0  0  0  0
    2.2673    7.5437    1.9978 H   0  0  0  0  0  0  0  0  0  0  0  0
    1.8926    8.3965   -0.2396 H   0  0  0  0  0  0  0  0  0  0  0  0
    1.4149    7.2440   -1.4775 H   0  0  0  0  0  0  0  0  0  0  0  0
    4.3275    7.9511   -0.7156 H   0  0  0  0  0  0  0  0  0  0  0  0
    3.4685    8.7599   -2.0239 H   0  0  0  0  0  0  0  0  0  0  0  0
    4.2832    5.8063   -1.9050 H   0  0  0  0  0  0  0  0  0  0  0  0
    4.9955    7.0414   -2.8829 H   0  0  0  0  0  0  0  0  0  0  0  0
    2.8710    7.3425   -4.1518 H   0  0  0  0  0  0  0  0  0  0  0  0
    2.0731    6.1009   -3.1816 H   0  0  0  0  0  0  0  0  0  0  0  0
    3.4730    3.8789   -2.9495 H   0  0  0  0  0  0  0  0  0  0  0  0
    4.1998    3.5627   -5.6639 H   0  0  0  0  0  0  0  0  0  0  0  0
  1  2  2  0  0  0  0
  2  3  1  0  0  0  0
  2  4  1  0  0  0  0
  3  5  1  0  0  0  0
  4  6  1  1  0  0  0
  4  7  1  0  0  0  0
  4 72  1  0  0  0  0
  5  8  1  1  0  0  0
  5  9  1  0  0  0  0
  5 73  1  0  0  0  0
  6 10  1  0  0  0  0
  6 11  1  1  0  0  0
  6 74  1  0  0  0  0
  7 75  1  0  0  0  0
  7 76  1  0  0  0  0
  7 77  1  0  0  0  0
  8 12  1  0  0  0  0
  8 13  1  1  0  0  0
  8 14  1  0  0  0  0
  9 15  1  0  0  0  0
  9 78  1  0  0  0  0
  9 79  1  0  0  0  0
 11 17  1  1  0  0  0
 11 18  1  0  0  0  0
 11 80  1  0  0  0  0
 12 81  1  0  0  0  0
 13 20  1  1  0  0  0
 13 19  1  0  0  0  0
 13 82  1  0  0  0  0
 14 83  1  0  0  0  0
 14 84  1  0  0  0  0
 14 85  1  0  0  0  0
 15 86  1  0  0  0  0
 15 87  1  0  0  0  0
 15 88  1  0  0  0  0
 16 10  1  0  0  0  0
 16 21  1  0  0  0  0
 16 22  1  0  0  0  0
 16 89  1  6  0  0  0
 17 23  1  0  0  0  0
 17 24  1  1  0  0  0
 17 90  1  0  0  0  0
 18 91  1  0  0  0  0
 18 92  1  0  0  0  0
 18 93  1  0  0  0  0
 19 94  1  0  0  0  0
 20 25  1  0  0  0  0
 20 26  1  0  0  0  0
 20 95  1  6  0  0  0
 21 27  1  0  0  0  0
 22 28  1  0  0  0  0
 22 96  1  0  0  0  0
 22 97  1  0  0  0  0
 24 30  1  1  0  0  0
 24 31  1  0  0  0  0
 24 32  1  0  0  0  0
 25 33  2  0  0  0  0
 25 34  1  0  0  0  0
 26 98  1  0  0  0  0
 26 99  1  0  0  0  0
 26100  1  0  0  0  0
 27 35  1  1  0  0  0
 27 36  1  0  0  0  0
 27101  1  0  0  0  0
 28 37  1  0  0  0  0
 28 38  1  0  0  0  0
 28 35  1  1  0  0  0
 29 23  1  0  0  0  0
 29 39  1  0  0  0  0
 29 40  1  1  0  0  0
 29102  1  0  0  0  0
 30 41  1  0  0  0  0
 31 34  1  0  0  0  0
 31103  1  0  0  0  0
 31104  1  0  0  0  0
 32105  1  0  0  0  0
 32106  1  0  0  0  0
 32107  1  0  0  0  0
 34 42  1  0  0  0  0
 34108  1  1  0  0  0
 35 43  1  0  0  0  0
 35109  1  6  0  0  0
 36110  1  0  0  0  0
 36111  1  0  0  0  0
 36112  1  0  0  0  0
 37 44  1  0  0  0  0
 38113  1  0  0  0  0
 38114  1  0  0  0  0
 38115  1  0  0  0  0
 39 45  1  0  0  0  0
 40 47  1  1  0  0  0
 40 46  1  0  0  0  0
 40116  1  0  0  0  0
 41117  1  0  0  0  0
 41118  1  0  0  0  0
 41119  1  0  0  0  0
 42120  1  0  0  0  0
 42121  1  0  0  0  0
 42122  1  0  0  0  0
 43123  1  0  0  0  0
 44124  1  0  0  0  0
 44125  1  0  0  0  0
 44126  1  0  0  0  0
 45 48  1  0  0  0  0
 45 49  1  0  0  0  0
 45127  1  1  0  0  0
 46128  1  0  0  0  0
 47 48  1  0  0  0  0
 47 50  1  0  0  0  0
 47129  1  1  0  0  0
 48130  1  0  0  0  0
 48131  1  0  0  0  0
 49132  1  0  0  0  0
 49133  1  0  0  0  0
 49134  1  0  0  0  0
 50 51  1  0  0  0  0
 50 52  1  0  0  0  0
 51 53  1  0  0  0  0
 51135  1  0  0  0  0
 51136  1  0  0  0  0
 52137  1  0  0  0  0
 52138  1  0  0  0  0
 52139  1  0  0  0  0
 53 54  2  0  0  0  0
 53 55  1  0  0  0  0
 54 56  1  0  0  0  0
 54140  1  0  0  0  0
 55 57  2  0  0  0  0
 55141  1  0  0  0  0
 56 58  2  0  0  0  0
 56142  1  0  0  0  0
 57 58  1  0  0  0  0
 57143  1  0  0  0  0
 58 59  1  0  0  0  0
 59 60  1  0  0  0  0
 59 61  2  0  0  0  0
 60 62  2  0  0  0  0
 61 63  1  0  0  0  0
 61144  1  0  0  0  0
 62 63  1  0  0  0  0
 63 64  1  0  0  0  0
 64 65  1  0  0  0  0
 64145  1  0  0  0  0
 64146  1  0  0  0  0
 65 66  1  0  0  0  0
 65147  1  0  0  0  0
 65148  1  0  0  0  0
 66 67  1  0  0  0  0
 66149  1  0  0  0  0
 66150  1  0  0  0  0
 67 68  1  0  0  0  0
 67151  1  0  0  0  0
 67152  1  0  0  0  0
 68 69  2  0  0  0  0
 68 70  1  0  0  0  0
 70 71  1  0  0  0  0
 70153  1  0  0  0  0
 71154  1  0  0  0  0
M  END
>  <Molecule Name>
2337331

>  <MolRegNo>
2337331

>  <m>
=

>  <Value>
4870

>  <Unit>
nM

>  <Type>
IC50

>  <pValue>
5.31

>  <Ligand Efficiency>
0

>  <Binding Efficiency>
5.28

>  <Surface Efficiency>
0

>  <Assay Index>
977530

>  <Assay Category>


>  <Assay Organism>
Homo sapiens

>  <Target ID>
12697

>  <Target Name>
Histone deacetylase 1

>  <Target Organism>
Homo sapiens

>  <Target Description>
Target is a single protein chain

>  <Sequence Accession>
Q13547

>  <Reference>
Bioorg. Med. Chem. 23 (24), 7543-7564 (2015)

>  <Pubmed ID>
26585275

>  <DOI>
10.1016/j.bmc.2015.10.045

$$$$
2337357
 OpenBabel03252423453D

151155  0  0  0  0  0  0  0  0999 V2000
    0.5475   -0.3597    0.2980 O   0  0  0  0  0  0  0  0  0  0  0  0
    1.6857   -0.1212   -0.0836 C   0  0  0  0  0  0  0  0  0  0  0  0
    2.4872   -1.0611   -0.6698 O   0  0  0  0  0  0  0  0  0  0  0  0
    2.3301    1.2673    0.0066 C   0  0  2  0  0  0  0  0  0  0  0  0
    1.8532   -2.3372   -0.9935 C   0  0  2  0  0  0  0  0  0  0  0  0
    2.3885    1.7323    1.5567 C   0  0  2  0  0  0  0  0  0  0  0  0
    1.6062    2.1257   -1.0436 C   0  0  0  0  0  0  0  0  0  0  0  0
    2.6344   -3.5820   -0.3968 C   0  0  2  0  0  0  0  0  0  0  0  0
    1.7098   -2.3883   -2.5309 C   0  0  0  0  0  0  0  0  0  0  0  0
    1.9515    3.0950    1.7174 O   0  0  0  0  0  0  0  0  0  0  0  0
    3.8650    1.4922    2.2749 C   0  0  1  0  0  0  0  0  0  0  0  0
    2.0156   -4.7915   -0.8962 O   0  0  0  0  0  0  0  0  0  0  0  0
    2.5732   -3.6817    1.1979 C   0  0  2  0  0  0  0  0  0  0  0  0
    4.0592   -3.6050   -0.9764 C   0  0  0  0  0  0  0  0  0  0  0  0
    0.8614   -1.2488   -3.0839 C   0  0  0  0  0  0  0  0  0  0  0  0
    0.5606    3.4167    1.4902 C   0  0  2  0  0  0  0  0  0  0  0  0
    4.0027    1.3722    3.9950 C   0  0  2  0  0  0  0  0  0  0  0  0
    4.4333    0.2751    1.5438 C   0  0  0  0  0  0  0  0  0  0  0  0
    2.2136   -2.4227    1.7611 O   0  0  0  0  0  0  0  0  0  0  0  0
    3.8739   -4.1641    1.8906 C   0  0  1  0  0  0  0  0  0  0  0  0
    0.2939    4.7513    1.9011 O   0  0  0  0  0  0  0  0  0  0  0  0
   -0.4785    2.3922    1.9201 C   0  0  0  0  0  0  0  0  0  0  0  0
    4.5870    2.6494    4.5295 O   0  0  0  0  0  0  0  0  0  0  0  0
    4.8084    0.0715    4.5424 C   0  0  1  0  0  0  0  0  0  0  0  0
    4.0154   -3.6856    3.3472 C   0  0  0  0  0  0  0  0  0  0  0  0
    4.1192   -5.6745    1.8554 C   0  0  0  0  0  0  0  0  0  0  0  0
   -0.6553    5.0545    2.9169 C   0  0  2  0  0  0  0  0  0  0  0  0
   -0.8689    2.4965    3.3833 C   0  0  2  0  0  0  0  0  0  0  0  0
    4.9788    2.9168    5.9210 C   0  0  2  0  0  0  0  0  0  0  0  0
    4.6000    0.0976    5.9832 O   0  0  0  0  0  0  0  0  0  0  0  0
    4.1452   -1.2722    4.0661 C   0  0  0  0  0  0  0  0  0  0  0  0
    6.3102    0.2879    4.2678 C   0  0  0  0  0  0  0  0  0  0  0  0
    3.3580   -4.2165    4.2489 O   0  0  0  0  0  0  0  0  0  0  0  0
    4.9893   -2.5252    3.6848 C   0  0  2  0  0  0  0  0  0  0  0  0
   -1.4737    3.9058    3.5739 C   0  0  1  0  0  0  0  0  0  0  0  0
   -1.6068    6.0953    2.3088 C   0  0  0  0  0  0  0  0  0  0  0  0
    0.1644    2.1012    4.2823 O   0  0  0  0  0  0  0  0  0  0  0  0
   -1.9037    1.3906    3.6731 C   0  0  0  0  0  0  0  0  0  0  0  0
    3.9136    3.3623    6.7679 O   0  0  0  0  0  0  0  0  0  0  0  0
    6.2231    3.8791    6.1842 C   0  0  2  0  0  0  0  0  0  0  0  0
    5.1799   -0.9237    6.7796 C   0  0  0  0  0  0  0  0  0  0  0  0
    6.0911   -2.4150    2.6239 C   0  0  0  0  0  0  0  0  0  0  0  0
   -1.7284    4.2300    4.9486 O   0  0  0  0  0  0  0  0  0  0  0  0
    1.1600    3.0240    4.6057 C   0  0  0  0  0  0  0  0  0  0  0  0
    3.6890    4.7587    6.9637 C   0  0  1  0  0  0  0  0  0  0  0  0
    6.5566    3.8319    7.6121 O   0  0  0  0  0  0  0  0  0  0  0  0
    5.9892    5.3815    5.8244 C   0  0  2  0  0  0  0  0  0  0  0  0
    4.7536    5.8101    6.6229 C   0  0  0  0  0  0  0  0  0  0  0  0
    2.4055    5.1478    6.2774 C   0  0  0  0  0  0  0  0  0  0  0  0
    6.1892    5.7464    4.3897 N   0  0  0  0  0  0  0  0  0  0  0  0
    5.8116    7.0519    3.8250 C   0  0  0  0  0  0  0  0  0  0  0  0
    5.6934    4.7364    3.4531 C   0  0  0  0  0  0  0  0  0  0  0  0
    6.3185    8.3053    4.4828 C   0  0  0  0  0  0  0  0  0  0  0  0
    7.5148    8.9234    4.1006 C   0  0  0  0  0  0  0  0  0  0  0  0
    5.5151    8.9320    5.4561 C   0  0  0  0  0  0  0  0  0  0  0  0
    7.9706   10.0559    4.8030 C   0  0  0  0  0  0  0  0  0  0  0  0
    5.9814   10.0194    6.1710 C   0  0  0  0  0  0  0  0  0  0  0  0
    7.2529   10.5438    5.8772 C   0  0  0  0  0  0  0  0  0  0  0  0
    7.8058   11.4360    6.8648 C   0  0  0  0  0  0  0  0  0  0  0  0
    7.1036   12.3772    7.5602 N   0  0  0  0  0  0  0  0  0  0  0  0
    9.0294   11.2310    7.4574 C   0  0  0  0  0  0  0  0  0  0  0  0
    7.8511   12.7606    8.5898 N   0  0  0  0  0  0  0  0  0  0  0  0
    8.9800   12.0359    8.5544 N   0  0  0  0  0  0  0  0  0  0  0  0
    9.9569   12.1319    9.6113 C   0  0  0  0  0  0  0  0  0  0  0  0
    9.4721   11.6658   10.9906 C   0  0  0  0  0  0  0  0  0  0  0  0
    9.0649   10.1932   11.0976 C   0  0  0  0  0  0  0  0  0  0  0  0
   10.1985    9.2237   10.8356 C   0  0  0  0  0  0  0  0  0  0  0  0
   11.3569    9.5606   10.6045 O   0  0  0  0  0  0  0  0  0  0  0  0
    9.8186    7.9049   10.8915 N   0  0  0  0  0  0  0  0  0  0  0  0
   10.8139    6.9602   10.5526 O   0  0  0  0  0  0  0  0  0  0  0  0
    3.3381    1.2381   -0.4064 H   0  0  0  0  0  0  0  0  0  0  0  0
    0.8317   -2.3939   -0.5963 H   0  0  0  0  0  0  0  0  0  0  0  0
    1.7376    1.0841    2.1473 H   0  0  0  0  0  0  0  0  0  0  0  0
    0.5159    2.0660   -0.9575 H   0  0  0  0  0  0  0  0  0  0  0  0
    1.8277    1.7613   -2.0545 H   0  0  0  0  0  0  0  0  0  0  0  0
    1.9401    3.1684   -1.0231 H   0  0  0  0  0  0  0  0  0  0  0  0
    1.2584   -3.3389   -2.8343 H   0  0  0  0  0  0  0  0  0  0  0  0
    2.6921   -2.3135   -3.0087 H   0  0  0  0  0  0  0  0  0  0  0  0
    4.4833    2.3586    2.0090 H   0  0  0  0  0  0  0  0  0  0  0  0
    1.0995   -4.8321   -0.5672 H   0  0  0  0  0  0  0  0  0  0  0  0
    1.7744   -4.3822    1.4810 H   0  0  0  0  0  0  0  0  0  0  0  0
    4.0460   -3.6757   -2.0684 H   0  0  0  0  0  0  0  0  0  0  0  0
    4.6101   -4.5001   -0.6726 H   0  0  0  0  0  0  0  0  0  0  0  0
    4.6299   -2.7160   -0.6933 H   0  0  0  0  0  0  0  0  0  0  0  0
   -0.1071   -1.1926   -2.5818 H   0  0  0  0  0  0  0  0  0  0  0  0
    0.6878   -1.3973   -4.1545 H   0  0  0  0  0  0  0  0  0  0  0  0
    1.3727   -0.2901   -2.9690 H   0  0  0  0  0  0  0  0  0  0  0  0
    0.4437    3.5217    0.4178 H   0  0  0  0  0  0  0  0  0  0  0  0
    2.9920    1.2989    4.3965 H   0  0  0  0  0  0  0  0  0  0  0  0
    3.6966   -0.5286    1.4851 H   0  0  0  0  0  0  0  0  0  0  0  0
    5.3136   -0.1325    2.0001 H   0  0  0  0  0  0  0  0  0  0  0  0
    4.7657    0.4799    0.5306 H   0  0  0  0  0  0  0  0  0  0  0  0
    1.3104   -2.1828    1.4771 H   0  0  0  0  0  0  0  0  0  0  0  0
    4.6997   -3.7428    1.3364 H   0  0  0  0  0  0  0  0  0  0  0  0
   -0.1776    1.3751    1.6896 H   0  0  0  0  0  0  0  0  0  0  0  0
   -1.3820    2.5746    1.3204 H   0  0  0  0  0  0  0  0  0  0  0  0
    3.4253   -6.2223    2.4997 H   0  0  0  0  0  0  0  0  0  0  0  0
    5.1330   -5.8861    2.2230 H   0  0  0  0  0  0  0  0  0  0  0  0
    4.0480   -6.0821    0.8442 H   0  0  0  0  0  0  0  0  0  0  0  0
   -0.0961    5.5962    3.6881 H   0  0  0  0  0  0  0  0  0  0  0  0
    5.3293    1.9988    6.3783 H   0  0  0  0  0  0  0  0  0  0  0  0
    3.3931   -1.0714    3.3096 H   0  0  0  0  0  0  0  0  0  0  0  0
    3.4803   -1.6091    4.8779 H   0  0  0  0  0  0  0  0  0  0  0  0
    6.6952    1.1693    4.7836 H   0  0  0  0  0  0  0  0  0  0  0  0
    6.5524    0.4655    3.2155 H   0  0  0  0  0  0  0  0  0  0  0  0
    6.9185   -0.5440    4.6136 H   0  0  0  0  0  0  0  0  0  0  0  0
    5.5091   -2.8530    4.5941 H   0  0  0  0  0  0  0  0  0  0  0  0
   -2.4645    3.8943    3.1029 H   0  0  0  0  0  0  0  0  0  0  0  0
   -2.1987    5.6537    1.4982 H   0  0  0  0  0  0  0  0  0  0  0  0
   -1.0448    6.9242    1.8628 H   0  0  0  0  0  0  0  0  0  0  0  0
   -2.2899    6.5018    3.0604 H   0  0  0  0  0  0  0  0  0  0  0  0
   -1.4101    0.4079    3.6661 H   0  0  0  0  0  0  0  0  0  0  0  0
   -2.7141    1.3667    2.9406 H   0  0  0  0  0  0  0  0  0  0  0  0
   -2.3315    1.4993    4.6756 H   0  0  0  0  0  0  0  0  0  0  0  0
    7.1225    3.5177    5.6792 H   0  0  0  0  0  0  0  0  0  0  0  0
    5.0869   -0.6147    7.8243 H   0  0  0  0  0  0  0  0  0  0  0  0
    6.2392   -1.0690    6.5641 H   0  0  0  0  0  0  0  0  0  0  0  0
    4.6350   -1.8634    6.6688 H   0  0  0  0  0  0  0  0  0  0  0  0
    5.7162   -2.0894    1.6492 H   0  0  0  0  0  0  0  0  0  0  0  0
    6.5579   -3.3954    2.4643 H   0  0  0  0  0  0  0  0  0  0  0  0
    6.9060   -1.7491    2.8957 H   0  0  0  0  0  0  0  0  0  0  0  0
   -1.5724    3.4271    5.4786 H   0  0  0  0  0  0  0  0  0  0  0  0
    1.6622    2.6562    5.5014 H   0  0  0  0  0  0  0  0  0  0  0  0
    0.7471    4.0044    4.8017 H   0  0  0  0  0  0  0  0  0  0  0  0
    1.9272    3.1227    3.8456 H   0  0  0  0  0  0  0  0  0  0  0  0
    3.4764    4.8548    8.0394 H   0  0  0  0  0  0  0  0  0  0  0  0
    5.7274    3.6436    8.0947 H   0  0  0  0  0  0  0  0  0  0  0  0
    6.8041    5.9403    6.3150 H   0  0  0  0  0  0  0  0  0  0  0  0
    5.1119    6.1940    7.5946 H   0  0  0  0  0  0  0  0  0  0  0  0
    4.2674    6.6773    6.1852 H   0  0  0  0  0  0  0  0  0  0  0  0
    2.5557    5.0671    5.1968 H   0  0  0  0  0  0  0  0  0  0  0  0
    2.0895    6.1665    6.5040 H   0  0  0  0  0  0  0  0  0  0  0  0
    1.6098    4.4818    6.6170 H   0  0  0  0  0  0  0  0  0  0  0  0
    4.7249    7.1229    3.6849 H   0  0  0  0  0  0  0  0  0  0  0  0
    6.2297    7.0839    2.8062 H   0  0  0  0  0  0  0  0  0  0  0  0
    5.8858    4.9934    2.4160 H   0  0  0  0  0  0  0  0  0  0  0  0
    4.6114    4.6389    3.5679 H   0  0  0  0  0  0  0  0  0  0  0  0
    6.2388    3.8046    3.6023 H   0  0  0  0  0  0  0  0  0  0  0  0
    8.0959    8.5381    3.2648 H   0  0  0  0  0  0  0  0  0  0  0  0
    4.5363    8.5527    5.6789 H   0  0  0  0  0  0  0  0  0  0  0  0
    8.9129   10.5016    4.5146 H   0  0  0  0  0  0  0  0  0  0  0  0
    5.3798   10.4088    6.9921 H   0  0  0  0  0  0  0  0  0  0  0  0
    9.8397   10.5378    7.2688 H   0  0  0  0  0  0  0  0  0  0  0  0
   10.2487   13.1867    9.6627 H   0  0  0  0  0  0  0  0  0  0  0  0
   10.8401   11.5723    9.2906 H   0  0  0  0  0  0  0  0  0  0  0  0
    8.6167   12.2786   11.3020 H   0  0  0  0  0  0  0  0  0  0  0  0
   10.2754   11.8633   11.7111 H   0  0  0  0  0  0  0  0  0  0  0  0
    8.2341    9.9674   10.4210 H   0  0  0  0  0  0  0  0  0  0  0  0
    8.7163   10.0069   12.1220 H   0  0  0  0  0  0  0  0  0  0  0  0
    8.8555    7.5930   10.8193 H   0  0  0  0  0  0  0  0  0  0  0  0
   11.5931    7.5267   10.3623 H   0  0  0  0  0  0  0  0  0  0  0  0
  1  2  2  0  0  0  0
  2  3  1  0  0  0  0
  2  4  1  0  0  0  0
  3  5  1  0  0  0  0
  4  6  1  1  0  0  0
  4  7  1  0  0  0  0
  4 71  1  0  0  0  0
  5  8  1  1  0  0  0
  5  9  1  0  0  0  0
  5 72  1  0  0  0  0
  6 10  1  0  0  0  0
  6 11  1  1  0  0  0
  6 73  1  0  0  0  0
  7 74  1  0  0  0  0
  7 75  1  0  0  0  0
  7 76  1  0  0  0  0
  8 12  1  0  0  0  0
  8 13  1  1  0  0  0
  8 14  1  0  0  0  0
  9 15  1  0  0  0  0
  9 77  1  0  0  0  0
  9 78  1  0  0  0  0
 11 17  1  1  0  0  0
 11 18  1  0  0  0  0
 11 79  1  0  0  0  0
 12 80  1  0  0  0  0
 13 20  1  1  0  0  0
 13 19  1  0  0  0  0
 13 81  1  0  0  0  0
 14 82  1  0  0  0  0
 14 83  1  0  0  0  0
 14 84  1  0  0  0  0
 15 85  1  0  0  0  0
 15 86  1  0  0  0  0
 15 87  1  0  0  0  0
 16 10  1  0  0  0  0
 16 21  1  0  0  0  0
 16 22  1  0  0  0  0
 16 88  1  6  0  0  0
 17 23  1  0  0  0  0
 17 24  1  1  0  0  0
 17 89  1  0  0  0  0
 18 90  1  0  0  0  0
 18 91  1  0  0  0  0
 18 92  1  0  0  0  0
 19 93  1  0  0  0  0
 20 25  1  0  0  0  0
 20 26  1  0  0  0  0
 20 94  1  6  0  0  0
 21 27  1  0  0  0  0
 22 28  1  0  0  0  0
 22 95  1  0  0  0  0
 22 96  1  0  0  0  0
 24 30  1  1  0  0  0
 24 31  1  0  0  0  0
 24 32  1  0  0  0  0
 25 33  2  0  0  0  0
 25 34  1  0  0  0  0
 26 97  1  0  0  0  0
 26 98  1  0  0  0  0
 26 99  1  0  0  0  0
 27 35  1  1  0  0  0
 27 36  1  0  0  0  0
 27100  1  0  0  0  0
 28 37  1  0  0  0  0
 28 38  1  0  0  0  0
 28 35  1  1  0  0  0
 29 23  1  0  0  0  0
 29 39  1  0  0  0  0
 29 40  1  1  0  0  0
 29101  1  0  0  0  0
 30 41  1  0  0  0  0
 31 34  1  0  0  0  0
 31102  1  0  0  0  0
 31103  1  0  0  0  0
 32104  1  0  0  0  0
 32105  1  0  0  0  0
 32106  1  0  0  0  0
 34 42  1  0  0  0  0
 34107  1  1  0  0  0
 35 43  1  0  0  0  0
 35108  1  6  0  0  0
 36109  1  0  0  0  0
 36110  1  0  0  0  0
 36111  1  0  0  0  0
 37 44  1  0  0  0  0
 38112  1  0  0  0  0
 38113  1  0  0  0  0
 38114  1  0  0  0  0
 39 45  1  0  0  0  0
 40 47  1  6  0  0  0
 40 46  1  0  0  0  0
 40115  1  0  0  0  0
 41116  1  0  0  0  0
 41117  1  0  0  0  0
 41118  1  0  0  0  0
 42119  1  0  0  0  0
 42120  1  0  0  0  0
 42121  1  0  0  0  0
 43122  1  0  0  0  0
 44123  1  0  0  0  0
 44124  1  0  0  0  0
 44125  1  0  0  0  0
 45 48  1  0  0  0  0
 45 49  1  0  0  0  0
 45126  1  1  0  0  0
 46127  1  0  0  0  0
 47 48  1  0  0  0  0
 47 50  1  0  0  0  0
 47128  1  1  0  0  0
 48129  1  0  0  0  0
 48130  1  0  0  0  0
 49131  1  0  0  0  0
 49132  1  0  0  0  0
 49133  1  0  0  0  0
 50 51  1  0  0  0  0
 50 52  1  0  0  0  0
 51 53  1  0  0  0  0
 51134  1  0  0  0  0
 51135  1  0  0  0  0
 52136  1  0  0  0  0
 52137  1  0  0  0  0
 52138  1  0  0  0  0
 53 54  2  0  0  0  0
 53 55  1  0  0  0  0
 54 56  1  0  0  0  0
 54139  1  0  0  0  0
 55 57  2  0  0  0  0
 55140  1  0  0  0  0
 56 58  2  0  0  0  0
 56141  1  0  0  0  0
 57 58  1  0  0  0  0
 57142  1  0  0  0  0
 58 59  1  0  0  0  0
 59 60  1  0  0  0  0
 59 61  2  0  0  0  0
 60 62  2  0  0  0  0
 61 63  1  0  0  0  0
 61143  1  0  0  0  0
 62 63  1  0  0  0  0
 63 64  1  0  0  0  0
 64 65  1  0  0  0  0
 64144  1  0  0  0  0
 64145  1  0  0  0  0
 65 66  1  0  0  0  0
 65146  1  0  0  0  0
 65147  1  0  0  0  0
 66 67  1  0  0  0  0
 66148  1  0  0  0  0
 66149  1  0  0  0  0
 67 68  2  0  0  0  0
 67 69  1  0  0  0  0
 69 70  1  0  0  0  0
 69150  1  0  0  0  0
 70151  1  0  0  0  0
M  END
>  <Molecule Name>
2337357

>  <MolRegNo>
2337357

>  <m>
=

>  <Value>
9910

>  <Unit>
nM

>  <Type>
IC50

>  <pValue>
5

>  <Ligand Efficiency>
0.1

>  <Binding Efficiency>
5.04

>  <Surface Efficiency>
1.9

>  <Assay Index>
977530

>  <Assay Category>


>  <Assay Organism>
Homo sapiens

>  <Target ID>
12697

>  <Target Name>
Histone deacetylase 1

>  <Target Organism>
Homo sapiens

>  <Target Description>
Target is a single protein chain

>  <Sequence Accession>
Q13547

>  <Reference>
Bioorg. Med. Chem. 23 (24), 7543-7564 (2015)

>  <Pubmed ID>
26585275

>  <DOI>
10.1016/j.bmc.2015.10.045

$$$$
2337335
 OpenBabel03252423453D

168172  0  0  0  0  0  0  0  0999 V2000
    0.2144    4.8669    1.9939 O   0  0  0  0  0  0  0  0  0  0  0  0
   -0.2772    3.7563    1.9387 C   0  0  0  0  0  0  0  0  0  0  0  0
   -1.6029    3.4947    1.7738 O   0  0  0  0  0  0  0  0  0  0  0  0
    0.5464    2.4764    2.0602 C   0  0  2  0  0  0  0  0  0  0  0  0
   -2.4868    4.6206    1.4756 C   0  0  2  0  0  0  0  0  0  0  0  0
    1.1577    2.4312    3.5596 C   0  0  2  0  0  0  0  0  0  0  0  0
    1.3926    2.3909    0.7869 C   0  0  0  0  0  0  0  0  0  0  0  0
   -3.8946    4.3701    2.1679 C   0  0  2  0  0  0  0  0  0  0  0  0
   -2.6011    4.7672   -0.0612 C   0  0  0  0  0  0  0  0  0  0  0  0
    2.5525    2.2620    3.5798 O   0  0  0  0  0  0  0  0  0  0  0  0
    0.5339    1.3072    4.5080 C   0  0  1  0  0  0  0  0  0  0  0  0
   -4.8302    5.3660    1.6983 O   0  0  0  0  0  0  0  0  0  0  0  0
   -3.8623    4.5031    3.7768 C   0  0  2  0  0  0  0  0  0  0  0  0
   -4.4618    3.0308    1.6440 C   0  0  0  0  0  0  0  0  0  0  0  0
   -1.2853    5.0761   -0.7615 C   0  0  0  0  0  0  0  0  0  0  0  0
    3.3795    3.3420    3.1901 C   0  0  1  0  0  0  0  0  0  0  0  0
    0.6725    1.4290    6.2216 C   0  0  2  0  0  0  0  0  0  0  0  0
   -0.9137    1.2590    4.0221 C   0  0  0  0  0  0  0  0  0  0  0  0
   -2.5373    4.7239    4.2573 O   0  0  0  0  0  0  0  0  0  0  0  0
   -4.5357    3.3458    4.5573 C   0  0  1  0  0  0  0  0  0  0  0  0
    3.4230    3.4870    1.7932 O   0  0  0  0  0  0  0  0  0  0  0  0
    3.0638    4.6250    3.9071 C   0  0  0  0  0  0  0  0  0  0  0  0
    2.0648    1.1064    6.7398 O   0  0  0  0  0  0  0  0  0  0  0  0
   -0.6968    0.6639    6.9026 C   0  0  1  0  0  0  0  0  0  0  0  0
   -3.9694    3.0140    5.9606 C   0  0  0  0  0  0  0  0  0  0  0  0
   -6.0566    3.4969    4.6701 C   0  0  0  0  0  0  0  0  0  0  0  0
    4.2458    4.5219    1.2500 C   0  0  1  0  0  0  0  0  0  0  0  0
    4.0789    5.6900    3.5625 C   0  0  1  0  0  0  0  0  0  0  0  0
    2.5425    1.3580    8.1433 C   0  0  2  0  0  0  0  0  0  0  0  0
   -0.3987    0.4676    8.3081 O   0  0  0  0  0  0  0  0  0  0  0  0
   -1.8995    1.7576    6.7588 C   0  0  0  0  0  0  0  0  0  0  0  0
   -1.0107   -0.7487    6.3174 C   0  0  0  0  0  0  0  0  0  0  0  0
   -3.9960    3.8618    6.8583 O   0  0  0  0  0  0  0  0  0  0  0  0
   -3.4031    1.5715    6.2681 C   0  0  2  0  0  0  0  0  0  0  0  0
    3.9942    5.8476    2.0111 C   0  0  2  0  0  0  0  0  0  0  0  0
    5.6477    3.9674    1.0368 C   0  0  0  0  0  0  0  0  0  0  0  0
    3.8320    6.9083    4.3069 O   0  0  0  0  0  0  0  0  0  0  0  0
    5.4814    5.2952    4.0921 C   0  0  0  0  0  0  0  0  0  0  0  0
    2.2595    2.6495    8.7091 O   0  0  0  0  0  0  0  0  0  0  0  0
    4.1042    1.0462    8.6138 C   0  0  2  0  0  0  0  0  0  0  0  0
   -1.3298   -0.2506    9.1159 C   0  0  0  0  0  0  0  0  0  0  0  0
   -3.8065    0.5988    5.1403 C   0  0  0  0  0  0  0  0  0  0  0  0
    2.6100    6.1861    1.7021 O   0  0  0  0  0  0  0  0  0  0  0  0
    4.8814    7.0208    1.5744 C   0  0  0  0  0  0  0  0  0  0  0  0
    2.5176    7.4443    4.3360 C   0  0  0  0  0  0  0  0  0  0  0  0
    3.1981    3.7038    8.4643 C   0  0  1  0  0  0  0  0  0  0  0  0
    4.2233    1.1198   10.0812 O   0  0  0  0  0  0  0  0  0  0  0  0
    5.2094    2.0156    8.1310 C   0  0  2  0  0  0  0  0  0  0  0  0
    4.7872    7.4913    0.1722 N   0  0  0  0  0  0  0  0  0  0  0  0
    4.7180    3.4218    8.5569 C   0  0  0  0  0  0  0  0  0  0  0  0
    2.8067    4.3292    7.1662 C   0  0  0  0  0  0  0  0  0  0  0  0
    5.7986    1.9192    6.7815 N   0  0  0  0  0  0  0  0  0  0  0  0
    3.4314    7.9691   -0.1410 C   0  0  0  0  0  0  0  0  0  0  0  0
    5.7259    8.6109    0.0464 C   0  0  0  0  0  0  0  0  0  0  0  0
    4.9200    1.7110    5.6491 C   0  0  0  0  0  0  0  0  0  0  0  0
    7.0345    1.1578    6.6005 C   0  0  0  0  0  0  0  0  0  0  0  0
    4.5414    0.3233    5.1547 C   0  0  0  0  0  0  0  0  0  0  0  0
    4.1260   -0.7275    5.9693 C   0  0  0  0  0  0  0  0  0  0  0  0
    4.3757    0.1187    3.7819 C   0  0  0  0  0  0  0  0  0  0  0  0
    3.4855   -1.8530    5.5148 C   0  0  0  0  0  0  0  0  0  0  0  0
    3.6946   -0.9857    3.2826 C   0  0  0  0  0  0  0  0  0  0  0  0
    3.2192   -1.9962    4.1445 C   0  0  0  0  0  0  0  0  0  0  0  0
    2.4747   -3.1250    3.7071 C   0  0  0  0  0  0  0  0  0  0  0  0
    2.2162   -4.2124    4.5082 N   0  0  0  0  0  0  0  0  0  0  0  0
    1.8814   -3.3163    2.4835 C   0  0  0  0  0  0  0  0  0  0  0  0
    1.4877   -5.0729    3.8199 N   0  0  0  0  0  0  0  0  0  0  0  0
    1.2586   -4.5175    2.6203 N   0  0  0  0  0  0  0  0  0  0  0  0
    0.3386   -5.1396    1.6993 C   0  0  0  0  0  0  0  0  0  0  0  0
   -1.0585   -5.2425    2.3030 C   0  0  0  0  0  0  0  0  0  0  0  0
   -2.0702   -5.7460    1.2796 C   0  0  0  0  0  0  0  0  0  0  0  0
   -3.4582   -5.8433    1.9024 C   0  0  0  0  0  0  0  0  0  0  0  0
   -4.4939   -6.3350    0.8972 C   0  0  0  0  0  0  0  0  0  0  0  0
   -5.8681   -6.4186    1.5074 C   0  0  0  0  0  0  0  0  0  0  0  0
   -6.1155   -6.1494    2.6808 O   0  0  0  0  0  0  0  0  0  0  0  0
   -6.8410   -6.7932    0.6028 N   0  0  0  0  0  0  0  0  0  0  0  0
   -8.1471   -6.9853    1.1238 O   0  0  0  0  0  0  0  0  0  0  0  0
   -0.1127    1.6333    1.8895 H   0  0  0  0  0  0  0  0  0  0  0  0
   -2.0755    5.5577    1.8727 H   0  0  0  0  0  0  0  0  0  0  0  0
    0.8790    3.3556    4.0751 H   0  0  0  0  0  0  0  0  0  0  0  0
    1.7328    3.3729    0.4410 H   0  0  0  0  0  0  0  0  0  0  0  0
    0.7780    2.0418   -0.0530 H   0  0  0  0  0  0  0  0  0  0  0  0
    2.2202    1.6819    0.8787 H   0  0  0  0  0  0  0  0  0  0  0  0
   -3.3166    5.5614   -0.3091 H   0  0  0  0  0  0  0  0  0  0  0  0
   -2.9732    3.8375   -0.5051 H   0  0  0  0  0  0  0  0  0  0  0  0
    1.0163    0.3528    4.2650 H   0  0  0  0  0  0  0  0  0  0  0  0
   -4.5414    6.2370    2.0273 H   0  0  0  0  0  0  0  0  0  0  0  0
   -4.3954    5.4256    4.0448 H   0  0  0  0  0  0  0  0  0  0  0  0
   -4.6334    3.0620    0.5633 H   0  0  0  0  0  0  0  0  0  0  0  0
   -5.4501    2.8054    2.0518 H   0  0  0  0  0  0  0  0  0  0  0  0
   -3.7928    2.1901    1.8551 H   0  0  0  0  0  0  0  0  0  0  0  0
   -0.8113    5.9696   -0.3435 H   0  0  0  0  0  0  0  0  0  0  0  0
   -1.4597    5.2477   -1.8265 H   0  0  0  0  0  0  0  0  0  0  0  0
   -0.5884    4.2354   -0.6841 H   0  0  0  0  0  0  0  0  0  0  0  0
    4.3702    3.0219    3.4682 H   0  0  0  0  0  0  0  0  0  0  0  0
    0.5687    2.4927    6.4580 H   0  0  0  0  0  0  0  0  0  0  0  0
   -1.3380    2.2538    3.8979 H   0  0  0  0  0  0  0  0  0  0  0  0
   -1.5646    0.7654    4.6891 H   0  0  0  0  0  0  0  0  0  0  0  0
   -1.0504    0.6711    3.1114 H   0  0  0  0  0  0  0  0  0  0  0  0
   -1.9262    4.1348    3.7965 H   0  0  0  0  0  0  0  0  0  0  0  0
   -4.3748    2.4779    3.9439 H   0  0  0  0  0  0  0  0  0  0  0  0
    3.0538    4.4729    4.9556 H   0  0  0  0  0  0  0  0  0  0  0  0
    2.0520    4.9634    3.6844 H   0  0  0  0  0  0  0  0  0  0  0  0
   -6.3382    4.3218    5.3319 H   0  0  0  0  0  0  0  0  0  0  0  0
   -6.4931    2.5803    5.0837 H   0  0  0  0  0  0  0  0  0  0  0  0
   -6.5270    3.6735    3.6988 H   0  0  0  0  0  0  0  0  0  0  0  0
    3.8423    4.6571    0.2379 H   0  0  0  0  0  0  0  0  0  0  0  0
    1.9663    0.6529    8.7475 H   0  0  0  0  0  0  0  0  0  0  0  0
   -1.5130    2.5616    6.1193 H   0  0  0  0  0  0  0  0  0  0  0  0
   -1.9681    2.2580    7.7357 H   0  0  0  0  0  0  0  0  0  0  0  0
   -0.3447   -1.5176    6.7157 H   0  0  0  0  0  0  0  0  0  0  0  0
   -0.9716   -0.8726    5.2348 H   0  0  0  0  0  0  0  0  0  0  0  0
   -2.0269   -1.0531    6.5970 H   0  0  0  0  0  0  0  0  0  0  0  0
   -3.9713    1.2233    7.1404 H   0  0  0  0  0  0  0  0  0  0  0  0
    6.0968    3.5410    1.9312 H   0  0  0  0  0  0  0  0  0  0  0  0
    6.3188    4.7058    0.5978 H   0  0  0  0  0  0  0  0  0  0  0  0
    5.5818    3.1190    0.3373 H   0  0  0  0  0  0  0  0  0  0  0  0
    5.8490    4.3330    3.7482 H   0  0  0  0  0  0  0  0  0  0  0  0
    5.4742    5.2424    5.1892 H   0  0  0  0  0  0  0  0  0  0  0  0
    6.2345    6.0421    3.8319 H   0  0  0  0  0  0  0  0  0  0  0  0
    4.4494    0.0362    8.4779 H   0  0  0  0  0  0  0  0  0  0  0  0
   -0.7584   -0.7880    9.8809 H   0  0  0  0  0  0  0  0  0  0  0  0
   -1.9241   -1.0042    8.5933 H   0  0  0  0  0  0  0  0  0  0  0  0
   -2.0020    0.4458    9.6203 H   0  0  0  0  0  0  0  0  0  0  0  0
   -3.4138    0.8682    4.1545 H   0  0  0  0  0  0  0  0  0  0  0  0
   -4.8973    0.6042    5.0115 H   0  0  0  0  0  0  0  0  0  0  0  0
   -3.5269   -0.4361    5.3186 H   0  0  0  0  0  0  0  0  0  0  0  0
    2.0710    5.3801    1.6503 H   0  0  0  0  0  0  0  0  0  0  0  0
    4.6694    7.8750    2.2325 H   0  0  0  0  0  0  0  0  0  0  0  0
    5.9256    6.7356    1.7610 H   0  0  0  0  0  0  0  0  0  0  0  0
    2.5503    8.3639    4.9270 H   0  0  0  0  0  0  0  0  0  0  0  0
    1.8176    6.7682    4.8358 H   0  0  0  0  0  0  0  0  0  0  0  0
    2.1611    7.7133    3.3427 H   0  0  0  0  0  0  0  0  0  0  0  0
    2.9935    4.4678    9.2251 H   0  0  0  0  0  0  0  0  0  0  0  0
    3.3299    1.0309   10.4500 H   0  0  0  0  0  0  0  0  0  0  0  0
    6.0858    1.8774    8.7905 H   0  0  0  0  0  0  0  0  0  0  0  0
    4.9651    3.5177    9.6286 H   0  0  0  0  0  0  0  0  0  0  0  0
    5.3154    4.2219    8.0962 H   0  0  0  0  0  0  0  0  0  0  0  0
    2.6499    3.5284    6.4512 H   0  0  0  0  0  0  0  0  0  0  0  0
    3.5563    5.0461    6.8227 H   0  0  0  0  0  0  0  0  0  0  0  0
    1.8387    4.8317    7.2358 H   0  0  0  0  0  0  0  0  0  0  0  0
    2.7511    7.1335   -0.3360 H   0  0  0  0  0  0  0  0  0  0  0  0
    3.4230    8.5519   -1.0668 H   0  0  0  0  0  0  0  0  0  0  0  0
    3.0120    8.5981    0.6558 H   0  0  0  0  0  0  0  0  0  0  0  0
    6.7445    8.2710    0.2630 H   0  0  0  0  0  0  0  0  0  0  0  0
    5.4814    9.4257    0.7392 H   0  0  0  0  0  0  0  0  0  0  0  0
    5.7242    9.0020   -0.9732 H   0  0  0  0  0  0  0  0  0  0  0  0
    5.4570    2.2045    4.8335 H   0  0  0  0  0  0  0  0  0  0  0  0
    4.0197    2.2985    5.7878 H   0  0  0  0  0  0  0  0  0  0  0  0
    7.5112    1.4564    5.6562 H   0  0  0  0  0  0  0  0  0  0  0  0
    6.8591    0.0789    6.5443 H   0  0  0  0  0  0  0  0  0  0  0  0
    7.7823    1.3462    7.3770 H   0  0  0  0  0  0  0  0  0  0  0  0
    4.1837   -0.7111    7.0242 H   0  0  0  0  0  0  0  0  0  0  0  0
    4.6751    0.8925    3.0780 H   0  0  0  0  0  0  0  0  0  0  0  0
    3.1041   -2.5824    6.2194 H   0  0  0  0  0  0  0  0  0  0  0  0
    3.4879   -1.0261    2.2157 H   0  0  0  0  0  0  0  0  0  0  0  0
    1.8288   -2.7204    1.5848 H   0  0  0  0  0  0  0  0  0  0  0  0
    0.7464   -6.1238    1.4452 H   0  0  0  0  0  0  0  0  0  0  0  0
    0.3235   -4.5267    0.7910 H   0  0  0  0  0  0  0  0  0  0  0  0
   -1.3719   -4.2615    2.6835 H   0  0  0  0  0  0  0  0  0  0  0  0
   -1.0397   -5.9187    3.1674 H   0  0  0  0  0  0  0  0  0  0  0  0
   -1.7579   -6.7278    0.9056 H   0  0  0  0  0  0  0  0  0  0  0  0
   -2.0948   -5.0620    0.4231 H   0  0  0  0  0  0  0  0  0  0  0  0
   -3.7569   -4.8608    2.2922 H   0  0  0  0  0  0  0  0  0  0  0  0
   -3.4303   -6.5233    2.7640 H   0  0  0  0  0  0  0  0  0  0  0  0
   -4.2174   -7.3284    0.5254 H   0  0  0  0  0  0  0  0  0  0  0  0
   -4.5400   -5.6403    0.0364 H   0  0  0  0  0  0  0  0  0  0  0  0
   -6.6527   -7.1881   -0.2986 H   0  0  0  0  0  0  0  0  0  0  0  0
   -8.0401   -6.7468    2.0774 H   0  0  0  0  0  0  0  0  0  0  0  0
  1  2  2  0  0  0  0
  2  3  1  0  0  0  0
  2  4  1  0  0  0  0
  3  5  1  0  0  0  0
  4  6  1  1  0  0  0
  4  7  1  0  0  0  0
  4 77  1  0  0  0  0
  5  8  1  1  0  0  0
  5  9  1  0  0  0  0
  5 78  1  0  0  0  0
  6 10  1  0  0  0  0
  6 11  1  1  0  0  0
  6 79  1  0  0  0  0
  7 80  1  0  0  0  0
  7 81  1  0  0  0  0
  7 82  1  0  0  0  0
  8 12  1  0  0  0  0
  8 13  1  1  0  0  0
  8 14  1  0  0  0  0
  9 15  1  0  0  0  0
  9 83  1  0  0  0  0
  9 84  1  0  0  0  0
 11 17  1  1  0  0  0
 11 18  1  0  0  0  0
 11 85  1  0  0  0  0
 12 86  1  0  0  0  0
 13 20  1  1  0  0  0
 13 19  1  0  0  0  0
 13 87  1  0  0  0  0
 14 88  1  0  0  0  0
 14 89  1  0  0  0  0
 14 90  1  0  0  0  0
 15 91  1  0  0  0  0
 15 92  1  0  0  0  0
 15 93  1  0  0  0  0
 16 21  1  0  0  0  0
 16 22  1  0  0  0  0
 16 10  1  0  0  0  0
 16 94  1  1  0  0  0
 17 23  1  0  0  0  0
 17 24  1  1  0  0  0
 17 95  1  0  0  0  0
 18 96  1  0  0  0  0
 18 97  1  0  0  0  0
 18 98  1  0  0  0  0
 19 99  1  0  0  0  0
 20 25  1  0  0  0  0
 20 26  1  0  0  0  0
 20100  1  6  0  0  0
 21 27  1  0  0  0  0
 22 28  1  0  0  0  0
 22101  1  0  0  0  0
 22102  1  0  0  0  0
 24 30  1  1  0  0  0
 24 31  1  0  0  0  0
 24 32  1  0  0  0  0
 25 33  2  0  0  0  0
 25 34  1  0  0  0  0
 26103  1  0  0  0  0
 26104  1  0  0  0  0
 26105  1  0  0  0  0
 27 35  1  1  0  0  0
 27 36  1  0  0  0  0
 27106  1  0  0  0  0
 28 35  1  6  0  0  0
 28 38  1  0  0  0  0
 28 37  1  0  0  0  0
 29 23  1  0  0  0  0
 29 39  1  0  0  0  0
 29 40  1  1  0  0  0
 29107  1  0  0  0  0
 30 41  1  0  0  0  0
 31 34  1  0  0  0  0
 31108  1  0  0  0  0
 31109  1  0  0  0  0
 32110  1  0  0  0  0
 32111  1  0  0  0  0
 32112  1  0  0  0  0
 34 42  1  0  0  0  0
 34113  1  1  0  0  0
 35 44  1  0  0  0  0
 35 43  1  6  0  0  0
 36114  1  0  0  0  0
 36115  1  0  0  0  0
 36116  1  0  0  0  0
 37 45  1  0  0  0  0
 38117  1  0  0  0  0
 38118  1  0  0  0  0
 38119  1  0  0  0  0
 39 46  1  0  0  0  0
 40 48  1  6  0  0  0
 40 47  1  0  0  0  0
 40120  1  0  0  0  0
 41121  1  0  0  0  0
 41122  1  0  0  0  0
 41123  1  0  0  0  0
 42124  1  0  0  0  0
 42125  1  0  0  0  0
 42126  1  0  0  0  0
 43127  1  0  0  0  0
 44 49  1  0  0  0  0
 44128  1  0  0  0  0
 44129  1  0  0  0  0
 45130  1  0  0  0  0
 45131  1  0  0  0  0
 45132  1  0  0  0  0
 46 50  1  0  0  0  0
 46 51  1  0  0  0  0
 46133  1  1  0  0  0
 47134  1  0  0  0  0
 48 50  1  0  0  0  0
 48 52  1  0  0  0  0
 48135  1  1  0  0  0
 49 53  1  0  0  0  0
 49 54  1  0  0  0  0
 50136  1  0  0  0  0
 50137  1  0  0  0  0
 51138  1  0  0  0  0
 51139  1  0  0  0  0
 51140  1  0  0  0  0
 52 55  1  0  0  0  0
 52 56  1  0  0  0  0
 53141  1  0  0  0  0
 53142  1  0  0  0  0
 53143  1  0  0  0  0
 54144  1  0  0  0  0
 54145  1  0  0  0  0
 54146  1  0  0  0  0
 55 57  1  0  0  0  0
 55147  1  0  0  0  0
 55148  1  0  0  0  0
 56149  1  0  0  0  0
 56150  1  0  0  0  0
 56151  1  0  0  0  0
 57 58  2  0  0  0  0
 57 59  1  0  0  0  0
 58 60  1  0  0  0  0
 58152  1  0  0  0  0
 59 61  2  0  0  0  0
 59153  1  0  0  0  0
 60 62  2  0  0  0  0
 60154  1  0  0  0  0
 61 62  1  0  0  0  0
 61155  1  0  0  0  0
 62 63  1  0  0  0  0
 63 64  1  0  0  0  0
 63 65  2  0  0  0  0
 64 66  2  0  0  0  0
 65 67  1  0  0  0  0
 65156  1  0  0  0  0
 66 67  1  0  0  0  0
 67 68  1  0  0  0  0
 68 69  1  0  0  0  0
 68157  1  0  0  0  0
 68158  1  0  0  0  0
 69 70  1  0  0  0  0
 69159  1  0  0  0  0
 69160  1  0  0  0  0
 70 71  1  0  0  0  0
 70161  1  0  0  0  0
 70162  1  0  0  0  0
 71 72  1  0  0  0  0
 71163  1  0  0  0  0
 71164  1  0  0  0  0
 72 73  1  0  0  0  0
 72165  1  0  0  0  0
 72166  1  0  0  0  0
 73 74  2  0  0  0  0
 73 75  1  0  0  0  0
 75 76  1  0  0  0  0
 75167  1  0  0  0  0
 76168  1  0  0  0  0
M  END
>  <Molecule Name>
2337335

>  <MolRegNo>
2337335

>  <m>
=

>  <Value>
32.9

>  <Unit>
nM

>  <Type>
IC50

>  <pValue>
7.48

>  <Ligand Efficiency>
0

>  <Binding Efficiency>
6.95

>  <Surface Efficiency>
0

>  <Assay Index>
977531

>  <Assay Category>


>  <Assay Organism>
Homo sapiens

>  <Target ID>
11307

>  <Target Name>
Histone deacetylase 6

>  <Target Organism>
Homo sapiens

>  <Target Description>
Target is a single protein chain

>  <Sequence Accession>
Q9UBN7

>  <Reference>
Bioorg. Med. Chem. 23 (24), 7543-7564 (2015)

>  <Pubmed ID>
26585275

>  <DOI>
10.1016/j.bmc.2015.10.045

$$$$
2337358
 OpenBabel03252423453D

171175  0  0  0  0  0  0  0  0999 V2000
   -0.0405    4.8628    2.3225 O   0  0  0  0  0  0  0  0  0  0  0  0
   -0.4005    3.7361    2.0130 C   0  0  0  0  0  0  0  0  0  0  0  0
   -1.6869    3.4585    1.6638 O   0  0  0  0  0  0  0  0  0  0  0  0
    0.4666    2.4695    2.0962 C   0  0  2  0  0  0  0  0  0  0  0  0
   -2.5607    4.6037    1.4323 C   0  0  2  0  0  0  0  0  0  0  0  0
    1.1656    2.4502    3.5995 C   0  0  2  0  0  0  0  0  0  0  0  0
    1.2242    2.2329    0.7790 C   0  0  0  0  0  0  0  0  0  0  0  0
   -3.9470    4.3611    2.1450 C   0  0  2  0  0  0  0  0  0  0  0  0
   -2.6611    4.7850   -0.0994 C   0  0  0  0  0  0  0  0  0  0  0  0
    2.5845    2.3394    3.5823 O   0  0  0  0  0  0  0  0  0  0  0  0
    0.5573    1.3280    4.5562 C   0  0  1  0  0  0  0  0  0  0  0  0
   -4.8823    5.3644    1.6900 O   0  0  0  0  0  0  0  0  0  0  0  0
   -3.8920    4.4960    3.7517 C   0  0  2  0  0  0  0  0  0  0  0  0
   -4.5193    3.0234    1.6314 C   0  0  0  0  0  0  0  0  0  0  0  0
   -1.3146    5.0774   -0.7552 C   0  0  0  0  0  0  0  0  0  0  0  0
    3.2938    3.5742    3.4198 C   0  0  1  0  0  0  0  0  0  0  0  0
    0.6878    1.4647    6.2402 C   0  0  2  0  0  0  0  0  0  0  0  0
   -0.8965    1.2702    4.0893 C   0  0  0  0  0  0  0  0  0  0  0  0
   -2.5645    4.6955    4.2430 O   0  0  0  0  0  0  0  0  0  0  0  0
   -4.5725    3.3550    4.5499 C   0  0  1  0  0  0  0  0  0  0  0  0
    4.6914    3.3401    3.4752 O   0  0  0  0  0  0  0  0  0  0  0  0
    2.9962    4.0820    2.0609 C   0  0  0  0  0  0  0  0  0  0  0  0
    2.0642    1.1041    6.7479 O   0  0  0  0  0  0  0  0  0  0  0  0
   -0.6850    0.7122    6.9355 C   0  0  1  0  0  0  0  0  0  0  0  0
   -3.9846    3.0400    5.9518 C   0  0  0  0  0  0  0  0  0  0  0  0
   -6.0875    3.5466    4.6754 C   0  0  0  0  0  0  0  0  0  0  0  0
    5.5632    4.4427    3.1751 C   0  0  1  0  0  0  0  0  0  0  0  0
    3.7127    5.3208    1.6271 C   0  0  1  0  0  0  0  0  0  0  0  0
    2.5556    1.4564    8.1120 C   0  0  2  0  0  0  0  0  0  0  0  0
   -0.3774    0.5294    8.3414 O   0  0  0  0  0  0  0  0  0  0  0  0
   -1.8987    1.8043    6.7893 C   0  0  0  0  0  0  0  0  0  0  0  0
   -1.0000   -0.7096    6.3680 C   0  0  0  0  0  0  0  0  0  0  0  0
   -4.0118    3.8948    6.8433 O   0  0  0  0  0  0  0  0  0  0  0  0
   -3.4003    1.6075    6.2718 C   0  0  2  0  0  0  0  0  0  0  0  0
    5.2269    4.9378    1.7493 C   0  0  2  0  0  0  0  0  0  0  0  0
    5.6076    5.4423    4.3220 C   0  0  0  0  0  0  0  0  0  0  0  0
    3.2470    5.4066    0.2593 O   0  0  0  0  0  0  0  0  0  0  0  0
    3.1273    6.4719    2.4746 C   0  0  0  0  0  0  0  0  0  0  0  0
    2.3039    2.8020    8.5328 O   0  0  0  0  0  0  0  0  0  0  0  0
    4.0978    1.1131    8.6136 C   0  0  2  0  0  0  0  0  0  0  0  0
   -1.3011   -0.1851    9.1585 C   0  0  0  0  0  0  0  0  0  0  0  0
   -3.7884    0.6258    5.1459 C   0  0  0  0  0  0  0  0  0  0  0  0
    5.4474    3.7711    0.8793 O   0  0  0  0  0  0  0  0  0  0  0  0
    6.1297    6.0706    1.2469 C   0  0  0  0  0  0  0  0  0  0  0  0
    3.2872    6.6405   -0.4150 C   0  0  0  0  0  0  0  0  0  0  0  0
    3.2834    3.7955    8.2153 C   0  0  1  0  0  0  0  0  0  0  0  0
    4.1893    1.2726   10.0689 O   0  0  0  0  0  0  0  0  0  0  0  0
    5.2475    2.0147    8.1097 C   0  0  2  0  0  0  0  0  0  0  0  0
    7.5945    5.8913    1.3635 N   0  0  0  0  0  0  0  0  0  0  0  0
    4.7823    3.4623    8.4073 C   0  0  0  0  0  0  0  0  0  0  0  0
    2.9238    4.3874    6.8749 C   0  0  0  0  0  0  0  0  0  0  0  0
    5.8326    1.8131    6.7828 N   0  0  0  0  0  0  0  0  0  0  0  0
    8.0923    4.8245    0.4808 C   0  0  0  0  0  0  0  0  0  0  0  0
    8.2192    7.1566    0.9657 C   0  0  0  0  0  0  0  0  0  0  0  0
    4.9430    1.6393    5.6608 C   0  0  0  0  0  0  0  0  0  0  0  0
    7.0576    1.0487    6.5935 C   0  0  0  0  0  0  0  0  0  0  0  0
    4.5123    0.2777    5.1662 C   0  0  0  0  0  0  0  0  0  0  0  0
    4.0778   -0.7474    5.9926 C   0  0  0  0  0  0  0  0  0  0  0  0
    4.3146    0.1015    3.7885 C   0  0  0  0  0  0  0  0  0  0  0  0
    3.4224   -1.8618    5.5147 C   0  0  0  0  0  0  0  0  0  0  0  0
    3.6571   -1.0152    3.2815 C   0  0  0  0  0  0  0  0  0  0  0  0
    3.2376   -2.0128    4.1509 C   0  0  0  0  0  0  0  0  0  0  0  0
    2.7665   -3.2784    3.6818 C   0  0  0  0  0  0  0  0  0  0  0  0
    1.9882   -3.5250    2.5941 N   0  0  0  0  0  0  0  0  0  0  0  0
    3.1989   -4.4575    4.2373 C   0  0  0  0  0  0  0  0  0  0  0  0
    1.9394   -4.8449    2.4345 N   0  0  0  0  0  0  0  0  0  0  0  0
    2.7106   -5.3964    3.3908 N   0  0  0  0  0  0  0  0  0  0  0  0
    3.1717   -6.7586    3.3019 C   0  0  0  0  0  0  0  0  0  0  0  0
    2.9972   -7.5501    4.6069 C   0  0  0  0  0  0  0  0  0  0  0  0
    3.6280   -8.9294    4.4609 C   0  0  0  0  0  0  0  0  0  0  0  0
    3.4731   -9.7708    5.7267 C   0  0  0  0  0  0  0  0  0  0  0  0
    4.1356  -11.1345    5.5421 C   0  0  0  0  0  0  0  0  0  0  0  0
    4.0023  -12.0168    6.7779 C   0  0  0  0  0  0  0  0  0  0  0  0
    4.6790  -13.3573    6.5599 C   0  0  0  0  0  0  0  0  0  0  0  0
    5.2407  -13.7139    5.5371 O   0  0  0  0  0  0  0  0  0  0  0  0
    4.6219  -14.1795    7.6646 N   0  0  0  0  0  0  0  0  0  0  0  0
    5.1908  -15.4678    7.4897 O   0  0  0  0  0  0  0  0  0  0  0  0
   -0.2190    1.6371    2.0074 H   0  0  0  0  0  0  0  0  0  0  0  0
   -2.1437    5.5351    1.8371 H   0  0  0  0  0  0  0  0  0  0  0  0
    0.9060    3.3911    4.1030 H   0  0  0  0  0  0  0  0  0  0  0  0
    1.5407    3.1519    0.2758 H   0  0  0  0  0  0  0  0  0  0  0  0
    0.5515    1.7843    0.0353 H   0  0  0  0  0  0  0  0  0  0  0  0
    2.0608    1.5386    0.9005 H   0  0  0  0  0  0  0  0  0  0  0  0
   -3.3523    5.5991   -0.3397 H   0  0  0  0  0  0  0  0  0  0  0  0
   -3.0431    3.8704   -0.5646 H   0  0  0  0  0  0  0  0  0  0  0  0
    1.0425    0.3756    4.3116 H   0  0  0  0  0  0  0  0  0  0  0  0
   -4.5746    6.2335    2.0074 H   0  0  0  0  0  0  0  0  0  0  0  0
   -4.4031    5.4274    4.0239 H   0  0  0  0  0  0  0  0  0  0  0  0
   -4.6804    3.0477    0.5492 H   0  0  0  0  0  0  0  0  0  0  0  0
   -5.5089    2.8082    2.0394 H   0  0  0  0  0  0  0  0  0  0  0  0
   -3.8540    2.1822    1.8533 H   0  0  0  0  0  0  0  0  0  0  0  0
   -0.8340    5.9505   -0.3040 H   0  0  0  0  0  0  0  0  0  0  0  0
   -1.4510    5.2728   -1.8230 H   0  0  0  0  0  0  0  0  0  0  0  0
   -0.6360    4.2235   -0.6697 H   0  0  0  0  0  0  0  0  0  0  0  0
    3.0046    4.2573    4.2148 H   0  0  0  0  0  0  0  0  0  0  0  0
    0.6020    2.5303    6.4748 H   0  0  0  0  0  0  0  0  0  0  0  0
   -1.3208    2.2624    3.9321 H   0  0  0  0  0  0  0  0  0  0  0  0
   -1.5474    0.8132    4.7786 H   0  0  0  0  0  0  0  0  0  0  0  0
   -1.0492    0.6318    3.2152 H   0  0  0  0  0  0  0  0  0  0  0  0
   -1.9358    4.1845    3.7195 H   0  0  0  0  0  0  0  0  0  0  0  0
   -4.4429    2.4755    3.9445 H   0  0  0  0  0  0  0  0  0  0  0  0
    1.9555    4.3032    1.9715 H   0  0  0  0  0  0  0  0  0  0  0  0
    3.2347    3.2770    1.3648 H   0  0  0  0  0  0  0  0  0  0  0  0
   -6.3416    4.3835    5.3331 H   0  0  0  0  0  0  0  0  0  0  0  0
   -6.5443    2.6440    5.0970 H   0  0  0  0  0  0  0  0  0  0  0  0
   -6.5594    3.7306    3.7055 H   0  0  0  0  0  0  0  0  0  0  0  0
    6.5599    3.9837    3.1415 H   0  0  0  0  0  0  0  0  0  0  0  0
    1.9529    0.8322    8.7765 H   0  0  0  0  0  0  0  0  0  0  0  0
   -1.5065    2.6194    6.1664 H   0  0  0  0  0  0  0  0  0  0  0  0
   -1.9866    2.2910    7.7713 H   0  0  0  0  0  0  0  0  0  0  0  0
   -0.3439   -1.4770    6.7847 H   0  0  0  0  0  0  0  0  0  0  0  0
   -0.9490   -0.8484    5.2869 H   0  0  0  0  0  0  0  0  0  0  0  0
   -2.0217   -1.0019    6.6398 H   0  0  0  0  0  0  0  0  0  0  0  0
   -3.9742    1.2579    7.1391 H   0  0  0  0  0  0  0  0  0  0  0  0
    4.6296    5.8255    4.6003 H   0  0  0  0  0  0  0  0  0  0  0  0
    6.2624    6.2875    4.1034 H   0  0  0  0  0  0  0  0  0  0  0  0
    5.9803    4.9445    5.2250 H   0  0  0  0  0  0  0  0  0  0  0  0
    3.0192    6.2418    3.5356 H   0  0  0  0  0  0  0  0  0  0  0  0
    2.1035    6.6984    2.1451 H   0  0  0  0  0  0  0  0  0  0  0  0
    3.7091    7.3893    2.3888 H   0  0  0  0  0  0  0  0  0  0  0  0
    4.3966    0.0792    8.5203 H   0  0  0  0  0  0  0  0  0  0  0  0
   -0.7211   -0.7463    9.8997 H   0  0  0  0  0  0  0  0  0  0  0  0
   -1.9243   -0.9162    8.6379 H   0  0  0  0  0  0  0  0  0  0  0  0
   -1.9460    0.5162    9.6903 H   0  0  0  0  0  0  0  0  0  0  0  0
   -3.3924    0.8974    4.1613 H   0  0  0  0  0  0  0  0  0  0  0  0
   -4.8790    0.6203    5.0127 H   0  0  0  0  0  0  0  0  0  0  0  0
   -3.5030   -0.4063    5.3310 H   0  0  0  0  0  0  0  0  0  0  0  0
    5.3148    2.9704    1.4235 H   0  0  0  0  0  0  0  0  0  0  0  0
    5.9070    6.2578    0.1947 H   0  0  0  0  0  0  0  0  0  0  0  0
    5.8551    6.9717    1.8082 H   0  0  0  0  0  0  0  0  0  0  0  0
    2.5615    6.5848   -1.2308 H   0  0  0  0  0  0  0  0  0  0  0  0
    4.2675    6.7964   -0.8587 H   0  0  0  0  0  0  0  0  0  0  0  0
    3.0115    7.4848    0.2168 H   0  0  0  0  0  0  0  0  0  0  0  0
    3.0909    4.6049    8.9325 H   0  0  0  0  0  0  0  0  0  0  0  0
    3.4137    0.9329   10.4607 H   0  0  0  0  0  0  0  0  0  0  0  0
    6.1049    1.8892    8.7913 H   0  0  0  0  0  0  0  0  0  0  0  0
    4.9756    3.6114    9.4857 H   0  0  0  0  0  0  0  0  0  0  0  0
    5.4344    4.2126    7.9363 H   0  0  0  0  0  0  0  0  0  0  0  0
    2.7967    3.6085    6.1340 H   0  0  0  0  0  0  0  0  0  0  0  0
    3.6529    5.1238    6.5386 H   0  0  0  0  0  0  0  0  0  0  0  0
    1.9403    4.8661    6.9328 H   0  0  0  0  0  0  0  0  0  0  0  0
    7.7360    3.8346    0.7780 H   0  0  0  0  0  0  0  0  0  0  0  0
    9.1841    4.7594    0.5478 H   0  0  0  0  0  0  0  0  0  0  0  0
    7.8265    4.9948   -0.5699 H   0  0  0  0  0  0  0  0  0  0  0  0
    7.8985    7.9616    1.6355 H   0  0  0  0  0  0  0  0  0  0  0  0
    7.9493    7.4370   -0.0607 H   0  0  0  0  0  0  0  0  0  0  0  0
    9.3096    7.0935    1.0378 H   0  0  0  0  0  0  0  0  0  0  0  0
    5.5149    2.0922    4.8617 H   0  0  0  0  0  0  0  0  0  0  0  0
    4.0582    2.2375    5.8142 H   0  0  0  0  0  0  0  0  0  0  0  0
    7.5249    1.3439    5.6384 H   0  0  0  0  0  0  0  0  0  0  0  0
    6.8752   -0.0283    6.5319 H   0  0  0  0  0  0  0  0  0  0  0  0
    7.8190    1.2334    7.3550 H   0  0  0  0  0  0  0  0  0  0  0  0
    4.1575   -0.7209    7.0495 H   0  0  0  0  0  0  0  0  0  0  0  0
    4.6122    0.8868    3.0990 H   0  0  0  0  0  0  0  0  0  0  0  0
    3.0660   -2.5960    6.2294 H   0  0  0  0  0  0  0  0  0  0  0  0
    3.4827   -1.0921    2.2129 H   0  0  0  0  0  0  0  0  0  0  0  0
    3.8713   -4.6760    5.0545 H   0  0  0  0  0  0  0  0  0  0  0  0
    4.2378   -6.6991    3.0399 H   0  0  0  0  0  0  0  0  0  0  0  0
    2.6459   -7.2401    2.4749 H   0  0  0  0  0  0  0  0  0  0  0  0
    1.9212   -7.6476    4.8274 H   0  0  0  0  0  0  0  0  0  0  0  0
    3.4498   -7.0203    5.4435 H   0  0  0  0  0  0  0  0  0  0  0  0
    4.6931   -8.8150    4.2307 H   0  0  0  0  0  0  0  0  0  0  0  0
    3.1742   -9.4589    3.6128 H   0  0  0  0  0  0  0  0  0  0  0  0
    2.4088   -9.9011    5.9530 H   0  0  0  0  0  0  0  0  0  0  0  0
    3.9280   -9.2494    6.5779 H   0  0  0  0  0  0  0  0  0  0  0  0
    5.1986  -10.9972    5.3050 H   0  0  0  0  0  0  0  0  0  0  0  0
    3.6882  -11.6468    4.6804 H   0  0  0  0  0  0  0  0  0  0  0  0
    2.9452  -12.1912    7.0092 H   0  0  0  0  0  0  0  0  0  0  0  0
    4.4659  -11.5319    7.6463 H   0  0  0  0  0  0  0  0  0  0  0  0
    4.0267  -14.0517    8.4721 H   0  0  0  0  0  0  0  0  0  0  0  0
    5.4995  -15.4297    6.5532 H   0  0  0  0  0  0  0  0  0  0  0  0
  1  2  2  0  0  0  0
  2  3  1  0  0  0  0
  2  4  1  0  0  0  0
  3  5  1  0  0  0  0
  4  6  1  1  0  0  0
  4  7  1  0  0  0  0
  4 78  1  0  0  0  0
  5  8  1  1  0  0  0
  5  9  1  0  0  0  0
  5 79  1  0  0  0  0
  6 10  1  0  0  0  0
  6 11  1  1  0  0  0
  6 80  1  0  0  0  0
  7 81  1  0  0  0  0
  7 82  1  0  0  0  0
  7 83  1  0  0  0  0
  8 12  1  0  0  0  0
  8 13  1  1  0  0  0
  8 14  1  0  0  0  0
  9 15  1  0  0  0  0
  9 84  1  0  0  0  0
  9 85  1  0  0  0  0
 11 17  1  1  0  0  0
 11 18  1  0  0  0  0
 11 86  1  0  0  0  0
 12 87  1  0  0  0  0
 13 20  1  1  0  0  0
 13 19  1  0  0  0  0
 13 88  1  0  0  0  0
 14 89  1  0  0  0  0
 14 90  1  0  0  0  0
 14 91  1  0  0  0  0
 15 92  1  0  0  0  0
 15 93  1  0  0  0  0
 15 94  1  0  0  0  0
 16 21  1  0  0  0  0
 16 22  1  0  0  0  0
 16 10  1  0  0  0  0
 16 95  1  1  0  0  0
 17 23  1  0  0  0  0
 17 24  1  1  0  0  0
 17 96  1  0  0  0  0
 18 97  1  0  0  0  0
 18 98  1  0  0  0  0
 18 99  1  0  0  0  0
 19100  1  0  0  0  0
 20 25  1  0  0  0  0
 20 26  1  0  0  0  0
 20101  1  6  0  0  0
 21 27  1  0  0  0  0
 22 28  1  0  0  0  0
 22102  1  0  0  0  0
 22103  1  0  0  0  0
 24 30  1  1  0  0  0
 24 31  1  0  0  0  0
 24 32  1  0  0  0  0
 25 33  2  0  0  0  0
 25 34  1  0  0  0  0
 26104  1  0  0  0  0
 26105  1  0  0  0  0
 26106  1  0  0  0  0
 27 35  1  6  0  0  0
 27 36  1  0  0  0  0
 27107  1  0  0  0  0
 28 35  1  1  0  0  0
 28 38  1  0  0  0  0
 28 37  1  0  0  0  0
 29 23  1  0  0  0  0
 29 39  1  0  0  0  0
 29 40  1  1  0  0  0
 29108  1  0  0  0  0
 30 41  1  0  0  0  0
 31 34  1  0  0  0  0
 31109  1  0  0  0  0
 31110  1  0  0  0  0
 32111  1  0  0  0  0
 32112  1  0  0  0  0
 32113  1  0  0  0  0
 34 42  1  0  0  0  0
 34114  1  1  0  0  0
 35 44  1  0  0  0  0
 35 43  1  6  0  0  0
 36115  1  0  0  0  0
 36116  1  0  0  0  0
 36117  1  0  0  0  0
 37 45  1  0  0  0  0
 38118  1  0  0  0  0
 38119  1  0  0  0  0
 38120  1  0  0  0  0
 39 46  1  0  0  0  0
 40 48  1  6  0  0  0
 40 47  1  0  0  0  0
 40121  1  0  0  0  0
 41122  1  0  0  0  0
 41123  1  0  0  0  0
 41124  1  0  0  0  0
 42125  1  0  0  0  0
 42126  1  0  0  0  0
 42127  1  0  0  0  0
 43128  1  0  0  0  0
 44 49  1  0  0  0  0
 44129  1  0  0  0  0
 44130  1  0  0  0  0
 45131  1  0  0  0  0
 45132  1  0  0  0  0
 45133  1  0  0  0  0
 46 50  1  0  0  0  0
 46 51  1  0  0  0  0
 46134  1  1  0  0  0
 47135  1  0  0  0  0
 48 50  1  0  0  0  0
 48 52  1  0  0  0  0
 48136  1  1  0  0  0
 49 53  1  0  0  0  0
 49 54  1  0  0  0  0
 50137  1  0  0  0  0
 50138  1  0  0  0  0
 51139  1  0  0  0  0
 51140  1  0  0  0  0
 51141  1  0  0  0  0
 52 55  1  0  0  0  0
 52 56  1  0  0  0  0
 53142  1  0  0  0  0
 53143  1  0  0  0  0
 53144  1  0  0  0  0
 54145  1  0  0  0  0
 54146  1  0  0  0  0
 54147  1  0  0  0  0
 55 57  1  0  0  0  0
 55148  1  0  0  0  0
 55149  1  0  0  0  0
 56150  1  0  0  0  0
 56151  1  0  0  0  0
 56152  1  0  0  0  0
 57 58  2  0  0  0  0
 57 59  1  0  0  0  0
 58 60  1  0  0  0  0
 58153  1  0  0  0  0
 59 61  2  0  0  0  0
 59154  1  0  0  0  0
 60 62  2  0  0  0  0
 60155  1  0  0  0  0
 61 62  1  0  0  0  0
 61156  1  0  0  0  0
 62 63  1  0  0  0  0
 63 64  1  0  0  0  0
 63 65  2  0  0  0  0
 64 66  2  0  0  0  0
 65 67  1  0  0  0  0
 65157  1  0  0  0  0
 66 67  1  0  0  0  0
 67 68  1  0  0  0  0
 68 69  1  0  0  0  0
 68158  1  0  0  0  0
 68159  1  0  0  0  0
 69 70  1  0  0  0  0
 69160  1  0  0  0  0
 69161  1  0  0  0  0
 70 71  1  0  0  0  0
 70162  1  0  0  0  0
 70163  1  0  0  0  0
 71 72  1  0  0  0  0
 71164  1  0  0  0  0
 71165  1  0  0  0  0
 72 73  1  0  0  0  0
 72166  1  0  0  0  0
 72167  1  0  0  0  0
 73 74  1  0  0  0  0
 73168  1  0  0  0  0
 73169  1  0  0  0  0
 74 75  2  0  0  0  0
 74 76  1  0  0  0  0
 76 77  1  0  0  0  0
 76170  1  0  0  0  0
 77171  1  0  0  0  0
M  END
>  <Molecule Name>
2337358

>  <MolRegNo>
2337358

>  <m>
=

>  <Value>
31.4

>  <Unit>
nM

>  <Type>
IC50

>  <pValue>
7.5

>  <Ligand Efficiency>
0

>  <Binding Efficiency>
6.87

>  <Surface Efficiency>
0

>  <Assay Index>
977531

>  <Assay Category>


>  <Assay Organism>
Homo sapiens

>  <Target ID>
11307

>  <Target Name>
Histone deacetylase 6

>  <Target Organism>
Homo sapiens

>  <Target Description>
Target is a single protein chain

>  <Sequence Accession>
Q9UBN7

>  <Reference>
Bioorg. Med. Chem. 23 (24), 7543-7564 (2015)

>  <Pubmed ID>
26585275

>  <DOI>
10.1016/j.bmc.2015.10.045

$$$$
2337380
 OpenBabel03252423453D

148152  0  0  0  0  0  0  0  0999 V2000
    0.4620   -0.3195    0.2866 O   0  0  0  0  0  0  0  0  0  0  0  0
    1.6149   -0.0670   -0.0239 C   0  0  0  0  0  0  0  0  0  0  0  0
    2.4732   -1.0105   -0.5451 O   0  0  0  0  0  0  0  0  0  0  0  0
    2.2677    1.3100    0.1097 C   0  0  2  0  0  0  0  0  0  0  0  0
    1.9055   -2.3038   -0.9279 C   0  0  2  0  0  0  0  0  0  0  0  0
    2.4166    1.7377    1.6481 C   0  0  2  0  0  0  0  0  0  0  0  0
    1.4937    2.2938   -0.7891 C   0  0  0  0  0  0  0  0  0  0  0  0
    2.7291   -3.5370   -0.3479 C   0  0  2  0  0  0  0  0  0  0  0  0
    1.8205   -2.3280   -2.4740 C   0  0  0  0  0  0  0  0  0  0  0  0
    1.8595    3.0527    1.6754 O   0  0  0  0  0  0  0  0  0  0  0  0
    3.9406    1.5971    2.1796 C   0  0  1  0  0  0  0  0  0  0  0  0
    2.1374   -4.7541   -0.8705 O   0  0  0  0  0  0  0  0  0  0  0  0
    2.6831   -3.6777    1.2499 C   0  0  2  0  0  0  0  0  0  0  0  0
    4.1508   -3.5315   -0.9405 C   0  0  0  0  0  0  0  0  0  0  0  0
    0.9675   -1.2066   -3.0504 C   0  0  0  0  0  0  0  0  0  0  0  0
    1.8130    3.7601    2.8859 C   0  0  2  0  0  0  0  0  0  0  0  0
    4.2530    1.6419    3.7895 C   0  0  2  0  0  0  0  0  0  0  0  0
    4.4971    0.3319    1.4984 C   0  0  0  0  0  0  0  0  0  0  0  0
    2.2839   -2.4596    1.8730 O   0  0  0  0  0  0  0  0  0  0  0  0
    4.0025   -4.1161    1.9349 C   0  0  1  0  0  0  0  0  0  0  0  0
    1.0262    3.2013    3.9118 O   0  0  0  0  0  0  0  0  0  0  0  0
    1.5357    5.2278    2.6310 C   0  0  0  0  0  0  0  0  0  0  0  0
    5.2496    2.7069    4.1722 O   0  0  0  0  0  0  0  0  0  0  0  0
    4.9380    0.2552    4.4420 C   0  0  1  0  0  0  0  0  0  0  0  0
    4.1548   -3.6120    3.3880 C   0  0  0  0  0  0  0  0  0  0  0  0
    4.2915   -5.6186    1.8946 C   0  0  0  0  0  0  0  0  0  0  0  0
   -0.3382    3.6027    4.0353 C   0  0  2  0  0  0  0  0  0  0  0  0
    0.0553    5.5254    2.3419 C   0  0  2  0  0  0  0  0  0  0  0  0
    4.9706    4.1069    4.3200 C   0  0  2  0  0  0  0  0  0  0  0  0
    4.7653    0.4145    5.8936 O   0  0  0  0  0  0  0  0  0  0  0  0
    4.2480   -1.1197    4.0480 C   0  0  0  0  0  0  0  0  0  0  0  0
    6.4590    0.3323    4.1853 C   0  0  0  0  0  0  0  0  0  0  0  0
    3.5614   -4.1568    4.3176 O   0  0  0  0  0  0  0  0  0  0  0  0
    5.1000   -2.3969    3.6797 C   0  0  2  0  0  0  0  0  0  0  0  0
   -0.7156    5.0441    3.5962 C   0  0  1  0  0  0  0  0  0  0  0  0
   -0.6084    3.4766    5.5451 C   0  0  0  0  0  0  0  0  0  0  0  0
   -0.3222    4.8583    1.1270 O   0  0  0  0  0  0  0  0  0  0  0  0
   -0.0150    7.0508    2.1282 C   0  0  0  0  0  0  0  0  0  0  0  0
    5.1308    4.8015    3.0729 O   0  0  0  0  0  0  0  0  0  0  0  0
    5.8093    4.9913    5.3270 C   0  0  2  0  0  0  0  0  0  0  0  0
    5.2666   -0.6316    6.7272 C   0  0  0  0  0  0  0  0  0  0  0  0
    6.1966   -2.3261    2.6027 C   0  0  0  0  0  0  0  0  0  0  0  0
   -2.1419    5.1255    3.4723 O   0  0  0  0  0  0  0  0  0  0  0  0
   -1.5996    5.1463    0.5742 C   0  0  0  0  0  0  0  0  0  0  0  0
    6.4973    4.9830    2.6510 C   0  0  1  0  0  0  0  0  0  0  0  0
    5.4843    6.4082    5.1557 O   0  0  0  0  0  0  0  0  0  0  0  0
    7.3269    4.8033    5.1649 C   0  0  2  0  0  0  0  0  0  0  0  0
    7.5728    5.3311    3.7184 C   0  0  0  0  0  0  0  0  0  0  0  0
    6.9319    3.8306    1.7656 C   0  0  0  0  0  0  0  0  0  0  0  0
    7.7836    3.4290    5.4860 N   0  0  0  0  0  0  0  0  0  0  0  0
    7.8072    2.9718    6.9128 C   0  0  0  0  0  0  0  0  0  0  0  0
    9.1130    3.1222    4.9260 C   0  0  0  0  0  0  0  0  0  0  0  0
    6.8345    3.4271    7.9922 C   0  0  0  0  0  0  0  0  0  0  0  0
    5.4363    3.3482    7.9221 C   0  0  0  0  0  0  0  0  0  0  0  0
    7.3737    3.8819    9.2037 C   0  0  0  0  0  0  0  0  0  0  0  0
    4.6225    3.9978    8.8792 C   0  0  0  0  0  0  0  0  0  0  0  0
    6.5660    4.4064   10.2127 C   0  0  0  0  0  0  0  0  0  0  0  0
    5.1898    4.5565   10.0278 C   0  0  0  0  0  0  0  0  0  0  0  0
    4.4122    5.3127   10.9937 C   0  0  0  0  0  0  0  0  0  0  0  0
    3.2472    5.9965   10.7519 N   0  0  0  0  0  0  0  0  0  0  0  0
    4.7940    5.5617   12.3136 C   0  0  0  0  0  0  0  0  0  0  0  0
    2.9141    6.6715   11.8423 N   0  0  0  0  0  0  0  0  0  0  0  0
    3.8714    6.4299   12.7718 N   0  0  0  0  0  0  0  0  0  0  0  0
    3.8032    7.0316   14.0831 C   0  0  0  0  0  0  0  0  0  0  0  0
    2.5471    6.7016   14.8609 C   0  0  0  0  0  0  0  0  0  0  0  0
    2.3935    5.2304   15.0412 C   0  0  0  0  0  0  0  0  0  0  0  0
    2.8945    4.6034   15.9732 O   0  0  0  0  0  0  0  0  0  0  0  0
    1.6635    4.6075   14.0606 N   0  0  0  0  0  0  0  0  0  0  0  0
    1.5839    3.2042   14.1505 O   0  0  0  0  0  0  0  0  0  0  0  0
    3.2445    1.2829   -0.3778 H   0  0  0  0  0  0  0  0  0  0  0  0
    0.8773   -2.4088   -0.5600 H   0  0  0  0  0  0  0  0  0  0  0  0
    1.7794    1.0914    2.2625 H   0  0  0  0  0  0  0  0  0  0  0  0
    0.4704    2.4584   -0.4408 H   0  0  0  0  0  0  0  0  0  0  0  0
    1.4331    1.9134   -1.8156 H   0  0  0  0  0  0  0  0  0  0  0  0
    2.0089    3.2608   -0.8443 H   0  0  0  0  0  0  0  0  0  0  0  0
    1.4115   -3.2870   -2.8105 H   0  0  0  0  0  0  0  0  0  0  0  0
    2.8166   -2.2169   -2.9129 H   0  0  0  0  0  0  0  0  0  0  0  0
    4.4788    2.4460    1.7569 H   0  0  0  0  0  0  0  0  0  0  0  0
    1.2204   -4.8184   -0.5476 H   0  0  0  0  0  0  0  0  0  0  0  0
    1.9212   -4.4281    1.5059 H   0  0  0  0  0  0  0  0  0  0  0  0
    4.1323   -3.6119   -2.0321 H   0  0  0  0  0  0  0  0  0  0  0  0
    4.7226   -4.4156   -0.6407 H   0  0  0  0  0  0  0  0  0  0  0  0
    4.7054   -2.6305   -0.6670 H   0  0  0  0  0  0  0  0  0  0  0  0
   -0.0215   -1.1788   -2.5859 H   0  0  0  0  0  0  0  0  0  0  0  0
    0.8381   -1.3533   -4.1270 H   0  0  0  0  0  0  0  0  0  0  0  0
    1.4520   -0.2365   -2.9102 H   0  0  0  0  0  0  0  0  0  0  0  0
    2.8183    3.7304    3.2539 H   0  0  0  0  0  0  0  0  0  0  0  0
    3.3326    1.8444    4.3524 H   0  0  0  0  0  0  0  0  0  0  0  0
    3.7746   -0.4801    1.5064 H   0  0  0  0  0  0  0  0  0  0  0  0
    5.4069   -0.0223    1.9267 H   0  0  0  0  0  0  0  0  0  0  0  0
    4.7683    0.4904    0.4557 H   0  0  0  0  0  0  0  0  0  0  0  0
    1.5184   -2.0697    1.4160 H   0  0  0  0  0  0  0  0  0  0  0  0
    4.8059   -3.6769    1.3632 H   0  0  0  0  0  0  0  0  0  0  0  0
    2.1626    5.5747    1.8010 H   0  0  0  0  0  0  0  0  0  0  0  0
    1.8318    5.7831    3.5334 H   0  0  0  0  0  0  0  0  0  0  0  0
    3.6232   -6.1860    2.5485 H   0  0  0  0  0  0  0  0  0  0  0  0
    5.3178   -5.8038    2.2414 H   0  0  0  0  0  0  0  0  0  0  0  0
    4.2131   -6.0259    0.8830 H   0  0  0  0  0  0  0  0  0  0  0  0
   -0.9650    2.8699    3.5131 H   0  0  0  0  0  0  0  0  0  0  0  0
    3.9455    4.2358    4.6763 H   0  0  0  0  0  0  0  0  0  0  0  0
    3.4613   -0.9545    3.3194 H   0  0  0  0  0  0  0  0  0  0  0  0
    3.6221   -1.4354    4.8955 H   0  0  0  0  0  0  0  0  0  0  0  0
    6.9057    1.1582    4.7324 H   0  0  0  0  0  0  0  0  0  0  0  0
    6.7246    0.4983    3.1393 H   0  0  0  0  0  0  0  0  0  0  0  0
    6.9910   -0.5476    4.5454 H   0  0  0  0  0  0  0  0  0  0  0  0
    5.6351   -2.6885    4.5938 H   0  0  0  0  0  0  0  0  0  0  0  0
   -0.4562    5.7297    4.4137 H   0  0  0  0  0  0  0  0  0  0  0  0
    0.0789    4.1299    6.1021 H   0  0  0  0  0  0  0  0  0  0  0  0
   -0.4043    2.4602    5.8985 H   0  0  0  0  0  0  0  0  0  0  0  0
   -1.6320    3.7495    5.8142 H   0  0  0  0  0  0  0  0  0  0  0  0
    0.4335    7.3104    1.1603 H   0  0  0  0  0  0  0  0  0  0  0  0
    0.5301    7.5960    2.9063 H   0  0  0  0  0  0  0  0  0  0  0  0
   -1.0393    7.4317    2.1203 H   0  0  0  0  0  0  0  0  0  0  0  0
    5.5116    4.8462    6.3419 H   0  0  0  0  0  0  0  0  0  0  0  0
    5.2103   -0.2938    7.7647 H   0  0  0  0  0  0  0  0  0  0  0  0
    6.3069   -0.8775    6.5118 H   0  0  0  0  0  0  0  0  0  0  0  0
    4.6537   -1.5346    6.6558 H   0  0  0  0  0  0  0  0  0  0  0  0
    5.8198   -2.0084    1.6281 H   0  0  0  0  0  0  0  0  0  0  0  0
    6.6478   -3.3181    2.4568 H   0  0  0  0  0  0  0  0  0  0  0  0
    7.0355   -1.6803    2.8490 H   0  0  0  0  0  0  0  0  0  0  0  0
   -2.3709    5.9786    3.0716 H   0  0  0  0  0  0  0  0  0  0  0  0
   -1.6219    4.7630   -0.4500 H   0  0  0  0  0  0  0  0  0  0  0  0
   -1.7980    6.2203    0.5153 H   0  0  0  0  0  0  0  0  0  0  0  0
   -2.3975    4.6467    1.1270 H   0  0  0  0  0  0  0  0  0  0  0  0
    6.4412    5.8585    1.9901 H   0  0  0  0  0  0  0  0  0  0  0  0
    5.0633    6.4838    4.2787 H   0  0  0  0  0  0  0  0  0  0  0  0
    7.8707    5.4953    5.8252 H   0  0  0  0  0  0  0  0  0  0  0  0
    7.5896    6.4311    3.7936 H   0  0  0  0  0  0  0  0  0  0  0  0
    8.5788    5.1140    3.3428 H   0  0  0  0  0  0  0  0  0  0  0  0
    7.1556    2.9388    2.3540 H   0  0  0  0  0  0  0  0  0  0  0  0
    7.8239    4.1052    1.1951 H   0  0  0  0  0  0  0  0  0  0  0  0
    6.1412    3.5796    1.0544 H   0  0  0  0  0  0  0  0  0  0  0  0
    8.8076    3.2127    7.3015 H   0  0  0  0  0  0  0  0  0  0  0  0
    7.7544    1.8754    6.9023 H   0  0  0  0  0  0  0  0  0  0  0  0
    9.3944    2.0842    5.1444 H   0  0  0  0  0  0  0  0  0  0  0  0
    9.8916    3.7753    5.3401 H   0  0  0  0  0  0  0  0  0  0  0  0
    9.1398    3.1938    3.8362 H   0  0  0  0  0  0  0  0  0  0  0  0
    4.9611    2.8947    7.0515 H   0  0  0  0  0  0  0  0  0  0  0  0
    8.4467    3.8456    9.3779 H   0  0  0  0  0  0  0  0  0  0  0  0
    3.5532    4.0849    8.6928 H   0  0  0  0  0  0  0  0  0  0  0  0
    7.0499    4.7466   11.1237 H   0  0  0  0  0  0  0  0  0  0  0  0
    5.6307    5.2248   12.8910 H   0  0  0  0  0  0  0  0  0  0  0  0
    3.8905    8.1221   13.9385 H   0  0  0  0  0  0  0  0  0  0  0  0
    4.6945    6.6981   14.6288 H   0  0  0  0  0  0  0  0  0  0  0  0
    1.6582    7.0997   14.3596 H   0  0  0  0  0  0  0  0  0  0  0  0
    2.5800    7.1763   15.8551 H   0  0  0  0  0  0  0  0  0  0  0  0
    1.5833    5.0095   13.1158 H   0  0  0  0  0  0  0  0  0  0  0  0
    2.0711    2.9989   14.9725 H   0  0  0  0  0  0  0  0  0  0  0  0
  1  2  2  0  0  0  0
  2  3  1  0  0  0  0
  2  4  1  0  0  0  0
  3  5  1  0  0  0  0
  4  6  1  1  0  0  0
  4  7  1  0  0  0  0
  4 70  1  0  0  0  0
  5  8  1  1  0  0  0
  5  9  1  0  0  0  0
  5 71  1  0  0  0  0
  6 10  1  0  0  0  0
  6 11  1  1  0  0  0
  6 72  1  0  0  0  0
  7 73  1  0  0  0  0
  7 74  1  0  0  0  0
  7 75  1  0  0  0  0
  8 12  1  0  0  0  0
  8 13  1  1  0  0  0
  8 14  1  0  0  0  0
  9 15  1  0  0  0  0
  9 76  1  0  0  0  0
  9 77  1  0  0  0  0
 11 17  1  1  0  0  0
 11 18  1  0  0  0  0
 11 78  1  0  0  0  0
 12 79  1  0  0  0  0
 13 20  1  1  0  0  0
 13 19  1  0  0  0  0
 13 80  1  0  0  0  0
 14 81  1  0  0  0  0
 14 82  1  0  0  0  0
 14 83  1  0  0  0  0
 15 84  1  0  0  0  0
 15 85  1  0  0  0  0
 15 86  1  0  0  0  0
 16 10  1  0  0  0  0
 16 21  1  0  0  0  0
 16 22  1  0  0  0  0
 16 87  1  1  0  0  0
 17 23  1  0  0  0  0
 17 24  1  1  0  0  0
 17 88  1  0  0  0  0
 18 89  1  0  0  0  0
 18 90  1  0  0  0  0
 18 91  1  0  0  0  0
 19 92  1  0  0  0  0
 20 25  1  0  0  0  0
 20 26  1  0  0  0  0
 20 93  1  6  0  0  0
 21 27  1  0  0  0  0
 22 28  1  0  0  0  0
 22 94  1  0  0  0  0
 22 95  1  0  0  0  0
 24 30  1  1  0  0  0
 24 31  1  0  0  0  0
 24 32  1  0  0  0  0
 25 33  2  0  0  0  0
 25 34  1  0  0  0  0
 26 96  1  0  0  0  0
 26 97  1  0  0  0  0
 26 98  1  0  0  0  0
 27 35  1  6  0  0  0
 27 36  1  0  0  0  0
 27 99  1  0  0  0  0
 28 37  1  0  0  0  0
 28 38  1  0  0  0  0
 28 35  1  1  0  0  0
 29 23  1  0  0  0  0
 29 39  1  0  0  0  0
 29 40  1  1  0  0  0
 29100  1  0  0  0  0
 30 41  1  0  0  0  0
 31 34  1  0  0  0  0
 31101  1  0  0  0  0
 31102  1  0  0  0  0
 32103  1  0  0  0  0
 32104  1  0  0  0  0
 32105  1  0  0  0  0
 34 42  1  0  0  0  0
 34106  1  1  0  0  0
 35 43  1  0  0  0  0
 35107  1  1  0  0  0
 36108  1  0  0  0  0
 36109  1  0  0  0  0
 36110  1  0  0  0  0
 37 44  1  0  0  0  0
 38111  1  0  0  0  0
 38112  1  0  0  0  0
 38113  1  0  0  0  0
 39 45  1  0  0  0  0
 40 47  1  6  0  0  0
 40 46  1  0  0  0  0
 40114  1  0  0  0  0
 41115  1  0  0  0  0
 41116  1  0  0  0  0
 41117  1  0  0  0  0
 42118  1  0  0  0  0
 42119  1  0  0  0  0
 42120  1  0  0  0  0
 43121  1  0  0  0  0
 44122  1  0  0  0  0
 44123  1  0  0  0  0
 44124  1  0  0  0  0
 45 48  1  0  0  0  0
 45 49  1  0  0  0  0
 45125  1  6  0  0  0
 46126  1  0  0  0  0
 47 48  1  0  0  0  0
 47 50  1  0  0  0  0
 47127  1  1  0  0  0
 48128  1  0  0  0  0
 48129  1  0  0  0  0
 49130  1  0  0  0  0
 49131  1  0  0  0  0
 49132  1  0  0  0  0
 50 51  1  0  0  0  0
 50 52  1  0  0  0  0
 51 53  1  0  0  0  0
 51133  1  0  0  0  0
 51134  1  0  0  0  0
 52135  1  0  0  0  0
 52136  1  0  0  0  0
 52137  1  0  0  0  0
 53 54  2  0  0  0  0
 53 55  1  0  0  0  0
 54 56  1  0  0  0  0
 54138  1  0  0  0  0
 55 57  2  0  0  0  0
 55139  1  0  0  0  0
 56 58  2  0  0  0  0
 56140  1  0  0  0  0
 57 58  1  0  0  0  0
 57141  1  0  0  0  0
 58 59  1  0  0  0  0
 59 60  1  0  0  0  0
 59 61  2  0  0  0  0
 60 62  2  0  0  0  0
 61 63  1  0  0  0  0
 61142  1  0  0  0  0
 62 63  1  0  0  0  0
 63 64  1  0  0  0  0
 64 65  1  0  0  0  0
 64143  1  0  0  0  0
 64144  1  0  0  0  0
 65 66  1  0  0  0  0
 65145  1  0  0  0  0
 65146  1  0  0  0  0
 66 67  2  0  0  0  0
 66 68  1  0  0  0  0
 68 69  1  0  0  0  0
 68147  1  0  0  0  0
 69148  1  0  0  0  0
M  END
>  <Molecule Name>
2337380

>  <MolRegNo>
2337380

>  <m>
=

>  <Value>
2450

>  <Unit>
nM

>  <Type>
IC50

>  <pValue>
5.61

>  <Ligand Efficiency>
0.11

>  <Binding Efficiency>
5.74

>  <Surface Efficiency>
2.13

>  <Assay Index>
977532

>  <Assay Category>


>  <Assay Organism>
Homo sapiens

>  <Target ID>
10869

>  <Target Name>
Histone deacetylase 8

>  <Target Organism>
Homo sapiens

>  <Target Description>
Target is a single protein chain

>  <Sequence Accession>
Q9BY41

>  <Reference>
Bioorg. Med. Chem. 23 (24), 7543-7564 (2015)

>  <Pubmed ID>
26585275

>  <DOI>
10.1016/j.bmc.2015.10.045

$$$$
2337357
 OpenBabel03252423453D

151155  0  0  0  0  0  0  0  0999 V2000
    0.3049   -0.4415    0.0428 O   0  0  0  0  0  0  0  0  0  0  0  0
    1.4815   -0.2492   -0.2356 C   0  0  0  0  0  0  0  0  0  0  0  0
    2.3312   -1.2232   -0.6644 O   0  0  0  0  0  0  0  0  0  0  0  0
    2.1664    1.1011   -0.1520 C   0  0  2  0  0  0  0  0  0  0  0  0
    1.7367   -2.4936   -1.0310 C   0  0  2  0  0  0  0  0  0  0  0  0
    2.2597    1.5031    1.3850 C   0  0  2  0  0  0  0  0  0  0  0  0
    1.4838    2.0095   -1.1855 C   0  0  0  0  0  0  0  0  0  0  0  0
    2.5558   -3.7153   -0.4440 C   0  0  2  0  0  0  0  0  0  0  0  0
    1.6538   -2.4794   -2.5715 C   0  0  0  0  0  0  0  0  0  0  0  0
    1.6720    2.8046    1.5542 O   0  0  0  0  0  0  0  0  0  0  0  0
    3.8940    1.2991    1.9973 C   0  0  1  0  0  0  0  0  0  0  0  0
    1.9741   -4.9321   -0.9596 O   0  0  0  0  0  0  0  0  0  0  0  0
    2.5038   -3.8452    1.1540 C   0  0  2  0  0  0  0  0  0  0  0  0
    3.9845   -3.6796   -1.0188 C   0  0  0  0  0  0  0  0  0  0  0  0
    0.8157   -1.3323   -3.1378 C   0  0  0  0  0  0  0  0  0  0  0  0
    0.2558    3.0622    1.4044 C   0  0  2  0  0  0  0  0  0  0  0  0
    4.2748    1.1849    3.6711 C   0  0  2  0  0  0  0  0  0  0  0  0
    4.3417    0.0200    1.2898 C   0  0  0  0  0  0  0  0  0  0  0  0
    2.1275   -2.6083    1.7587 O   0  0  0  0  0  0  0  0  0  0  0  0
    3.8219   -4.3065    1.8159 C   0  0  1  0  0  0  0  0  0  0  0  0
   -0.1408    4.4144    1.5850 O   0  0  0  0  0  0  0  0  0  0  0  0
   -0.7203    2.0946    2.0303 C   0  0  0  0  0  0  0  0  0  0  0  0
    4.9385    2.3641    4.3692 O   0  0  0  0  0  0  0  0  0  0  0  0
    4.8292   -0.1651    4.3129 C   0  0  1  0  0  0  0  0  0  0  0  0
    3.9921   -3.8662    3.2692 C   0  0  0  0  0  0  0  0  0  0  0  0
    4.1546   -5.7921    1.7717 C   0  0  0  0  0  0  0  0  0  0  0  0
   -0.7939    4.8615    2.7702 C   0  0  2  0  0  0  0  0  0  0  0  0
   -1.1144    2.3930    3.4847 C   0  0  2  0  0  0  0  0  0  0  0  0
    6.3340    2.7565    4.5474 C   0  0  2  0  0  0  0  0  0  0  0  0
    4.7626   -0.0688    5.7677 O   0  0  0  0  0  0  0  0  0  0  0  0
    4.1451   -1.4972    3.9256 C   0  0  0  0  0  0  0  0  0  0  0  0
    6.3053   -0.2607    3.9432 C   0  0  0  0  0  0  0  0  0  0  0  0
    3.3301   -4.3767    4.1766 O   0  0  0  0  0  0  0  0  0  0  0  0
    5.0003   -2.7528    3.5780 C   0  0  2  0  0  0  0  0  0  0  0  0
   -1.6933    3.8373    3.5019 C   0  0  1  0  0  0  0  0  0  0  0  0
   -1.6615    6.0461    2.2956 C   0  0  0  0  0  0  0  0  0  0  0  0
    0.0168    2.1722    4.3358 O   0  0  0  0  0  0  0  0  0  0  0  0
   -2.1436    1.2968    3.8145 C   0  0  0  0  0  0  0  0  0  0  0  0
    7.2976    1.8917    5.1921 O   0  0  0  0  0  0  0  0  0  0  0  0
    6.6389    4.1656    5.1623 C   0  0  2  0  0  0  0  0  0  0  0  0
    3.5360   -0.1508    6.4960 C   0  0  0  0  0  0  0  0  0  0  0  0
    6.1206   -2.7614    2.5212 C   0  0  0  0  0  0  0  0  0  0  0  0
   -2.0002    4.3507    4.8092 O   0  0  0  0  0  0  0  0  0  0  0  0
   -0.1906    2.2871    5.7423 C   0  0  0  0  0  0  0  0  0  0  0  0
    7.5994    1.8522    6.5774 C   0  0  1  0  0  0  0  0  0  0  0  0
    8.0144    4.4908    4.7307 O   0  0  0  0  0  0  0  0  0  0  0  0
    6.6914    4.2619    6.7217 C   0  0  2  0  0  0  0  0  0  0  0  0
    7.5886    3.1703    7.3237 C   0  0  0  0  0  0  0  0  0  0  0  0
    6.9038    0.7452    7.3317 C   0  0  0  0  0  0  0  0  0  0  0  0
    5.4864    4.4729    7.5642 N   0  0  0  0  0  0  0  0  0  0  0  0
    4.2405    3.7846    7.2176 C   0  0  0  0  0  0  0  0  0  0  0  0
    5.2832    5.8930    7.8349 C   0  0  0  0  0  0  0  0  0  0  0  0
    3.4099    4.3629    6.1107 C   0  0  0  0  0  0  0  0  0  0  0  0
    2.7599    3.4534    5.3239 C   0  0  0  0  0  0  0  0  0  0  0  0
    3.2249    5.6753    5.7139 C   0  0  0  0  0  0  0  0  0  0  0  0
    2.4904    3.7617    3.9987 C   0  0  0  0  0  0  0  0  0  0  0  0
    2.9116    5.9968    4.3902 C   0  0  0  0  0  0  0  0  0  0  0  0
    2.7248    5.0012    3.4418 C   0  0  0  0  0  0  0  0  0  0  0  0
    2.7476    5.3397    2.0465 C   0  0  0  0  0  0  0  0  0  0  0  0
    2.0035    6.3505    1.4942 N   0  0  0  0  0  0  0  0  0  0  0  0
    3.5568    4.8088    1.0540 C   0  0  0  0  0  0  0  0  0  0  0  0
    2.2088    6.3594    0.1831 N   0  0  0  0  0  0  0  0  0  0  0  0
    3.1294    5.4315   -0.0807 N   0  0  0  0  0  0  0  0  0  0  0  0
    3.6818    5.3340   -1.4208 C   0  0  0  0  0  0  0  0  0  0  0  0
    4.4039    6.6275   -1.8160 C   0  0  0  0  0  0  0  0  0  0  0  0
    5.5206    7.0295   -0.8479 C   0  0  0  0  0  0  0  0  0  0  0  0
    6.6840    6.0643   -0.8676 C   0  0  0  0  0  0  0  0  0  0  0  0
    6.7287    5.0477   -1.5576 O   0  0  0  0  0  0  0  0  0  0  0  0
    7.7174    6.4262   -0.0399 N   0  0  0  0  0  0  0  0  0  0  0  0
    8.7900    5.5068    0.0272 O   0  0  0  0  0  0  0  0  0  0  0  0
    3.1676    1.0378   -0.5728 H   0  0  0  0  0  0  0  0  0  0  0  0
    0.7103   -2.5841   -0.6502 H   0  0  0  0  0  0  0  0  0  0  0  0
    1.6907    0.8004    2.0028 H   0  0  0  0  0  0  0  0  0  0  0  0
    0.3927    1.9155   -1.1873 H   0  0  0  0  0  0  0  0  0  0  0  0
    1.7790    1.7167   -2.1997 H   0  0  0  0  0  0  0  0  0  0  0  0
    1.7764    3.0562   -1.0723 H   0  0  0  0  0  0  0  0  0  0  0  0
    1.2020   -3.4227   -2.9450 H   0  0  0  0  0  0  0  0  0  0  0  0
    2.6450   -2.3952   -3.0219 H   0  0  0  0  0  0  0  0  0  0  0  0
    4.4859    2.1307    1.6194 H   0  0  0  0  0  0  0  0  0  0  0  0
    1.0618   -5.0013   -0.6245 H   0  0  0  0  0  0  0  0  0  0  0  0
    1.7294   -4.5725    1.4294 H   0  0  0  0  0  0  0  0  0  0  0  0
    3.9821   -3.7352   -2.1108 H   0  0  0  0  0  0  0  0  0  0  0  0
    4.5681   -4.5579   -0.7270 H   0  0  0  0  0  0  0  0  0  0  0  0
    4.5195   -2.7743   -0.7163 H   0  0  0  0  0  0  0  0  0  0  0  0
   -0.1604   -1.2774   -2.6467 H   0  0  0  0  0  0  0  0  0  0  0  0
    0.6545   -1.4856   -4.2038 H   0  0  0  0  0  0  0  0  0  0  0  0
    1.3282   -0.3631   -3.0365 H   0  0  0  0  0  0  0  0  0  0  0  0
    0.0662    2.9914    0.3440 H   0  0  0  0  0  0  0  0  0  0  0  0
    3.2624    1.2128    4.0736 H   0  0  0  0  0  0  0  0  0  0  0  0
    3.5789   -0.7474    1.3708 H   0  0  0  0  0  0  0  0  0  0  0  0
    5.2507   -0.3742    1.6746 H   0  0  0  0  0  0  0  0  0  0  0  0
    4.5789    0.1489    0.2349 H   0  0  0  0  0  0  0  0  0  0  0  0
    1.3169   -2.2591    1.3508 H   0  0  0  0  0  0  0  0  0  0  0  0
    4.6059   -3.8263    1.2519 H   0  0  0  0  0  0  0  0  0  0  0  0
   -0.3718    1.0708    1.9278 H   0  0  0  0  0  0  0  0  0  0  0  0
   -1.6395    2.1823    1.4300 H   0  0  0  0  0  0  0  0  0  0  0  0
    3.5060   -6.3728    2.4339 H   0  0  0  0  0  0  0  0  0  0  0  0
    5.1841   -5.9416    2.1269 H   0  0  0  0  0  0  0  0  0  0  0  0
    4.0926   -6.2004    0.7619 H   0  0  0  0  0  0  0  0  0  0  0  0
   -0.0541    5.2746    3.4630 H   0  0  0  0  0  0  0  0  0  0  0  0
    6.7004    2.8272    3.5134 H   0  0  0  0  0  0  0  0  0  0  0  0
    3.3338   -1.3069    3.2320 H   0  0  0  0  0  0  0  0  0  0  0  0
    3.5777   -1.8618    4.7846 H   0  0  0  0  0  0  0  0  0  0  0  0
    6.8119    0.6666    3.8380 H   0  0  0  0  0  0  0  0  0  0  0  0
    6.4781   -0.5170    2.9157 H   0  0  0  0  0  0  0  0  0  0  0  0
    6.8811   -0.8977    4.6154 H   0  0  0  0  0  0  0  0  0  0  0  0
    5.5067   -3.0556    4.5052 H   0  0  0  0  0  0  0  0  0  0  0  0
   -2.6568    3.8010    2.9776 H   0  0  0  0  0  0  0  0  0  0  0  0
   -2.3468    5.7184    1.5009 H   0  0  0  0  0  0  0  0  0  0  0  0
   -1.0440    6.8341    1.8474 H   0  0  0  0  0  0  0  0  0  0  0  0
   -2.2568    6.4872    3.1000 H   0  0  0  0  0  0  0  0  0  0  0  0
   -1.6183    0.3359    3.9159 H   0  0  0  0  0  0  0  0  0  0  0  0
   -2.8922    1.1848    3.0243 H   0  0  0  0  0  0  0  0  0  0  0  0
   -2.6715    1.4761    4.7522 H   0  0  0  0  0  0  0  0  0  0  0  0
    6.0127    4.9559    4.7461 H   0  0  0  0  0  0  0  0  0  0  0  0
    3.7796   -0.1141    7.5647 H   0  0  0  0  0  0  0  0  0  0  0  0
    2.9828   -1.0805    6.3576 H   0  0  0  0  0  0  0  0  0  0  0  0
    2.8604    0.6740    6.3039 H   0  0  0  0  0  0  0  0  0  0  0  0
    5.8002   -2.2999    1.5661 H   0  0  0  0  0  0  0  0  0  0  0  0
    6.4606   -3.7590    2.3023 H   0  0  0  0  0  0  0  0  0  0  0  0
    7.0428   -2.2519    2.8203 H   0  0  0  0  0  0  0  0  0  0  0  0
   -2.4250    3.6463    5.3217 H   0  0  0  0  0  0  0  0  0  0  0  0
    0.6543    1.8214    6.2547 H   0  0  0  0  0  0  0  0  0  0  0  0
   -1.0779    1.7530    6.0847 H   0  0  0  0  0  0  0  0  0  0  0  0
   -0.2258    3.3329    6.0556 H   0  0  0  0  0  0  0  0  0  0  0  0
    8.6560    1.5238    6.5795 H   0  0  0  0  0  0  0  0  0  0  0  0
    8.5339    3.6409    4.7863 H   0  0  0  0  0  0  0  0  0  0  0  0
    7.3062    5.1516    6.9199 H   0  0  0  0  0  0  0  0  0  0  0  0
    8.6230    3.5516    7.3066 H   0  0  0  0  0  0  0  0  0  0  0  0
    7.3989    3.0121    8.3942 H   0  0  0  0  0  0  0  0  0  0  0  0
    5.8892    1.0395    7.5987 H   0  0  0  0  0  0  0  0  0  0  0  0
    7.4297    0.5089    8.2622 H   0  0  0  0  0  0  0  0  0  0  0  0
    6.8806   -0.1752    6.7452 H   0  0  0  0  0  0  0  0  0  0  0  0
    3.6120    3.6949    8.1168 H   0  0  0  0  0  0  0  0  0  0  0  0
    4.5167    2.7461    6.9860 H   0  0  0  0  0  0  0  0  0  0  0  0
    4.3139    6.0651    8.3178 H   0  0  0  0  0  0  0  0  0  0  0  0
    5.3461    6.4804    6.9110 H   0  0  0  0  0  0  0  0  0  0  0  0
    6.0435    6.2821    8.5091 H   0  0  0  0  0  0  0  0  0  0  0  0
    2.6406    2.4333    5.6519 H   0  0  0  0  0  0  0  0  0  0  0  0
    3.3861    6.4996    6.3835 H   0  0  0  0  0  0  0  0  0  0  0  0
    2.1139    2.9273    3.4549 H   0  0  0  0  0  0  0  0  0  0  0  0
    2.8887    7.0371    4.0814 H   0  0  0  0  0  0  0  0  0  0  0  0
    4.3387    4.0713    1.0436 H   0  0  0  0  0  0  0  0  0  0  0  0
    2.8520    5.1420   -2.1126 H   0  0  0  0  0  0  0  0  0  0  0  0
    4.3390    4.4606   -1.4678 H   0  0  0  0  0  0  0  0  0  0  0  0
    3.6718    7.4451   -1.8498 H   0  0  0  0  0  0  0  0  0  0  0  0
    4.8038    6.5264   -2.8321 H   0  0  0  0  0  0  0  0  0  0  0  0
    5.1457    7.1100    0.1781 H   0  0  0  0  0  0  0  0  0  0  0  0
    5.8962    8.0185   -1.1324 H   0  0  0  0  0  0  0  0  0  0  0  0
    7.6067    7.0551    0.7498 H   0  0  0  0  0  0  0  0  0  0  0  0
    8.5310    4.8320   -0.6379 H   0  0  0  0  0  0  0  0  0  0  0  0
  1  2  2  0  0  0  0
  2  3  1  0  0  0  0
  2  4  1  0  0  0  0
  3  5  1  0  0  0  0
  4  6  1  1  0  0  0
  4  7  1  0  0  0  0
  4 71  1  0  0  0  0
  5  8  1  1  0  0  0
  5  9  1  0  0  0  0
  5 72  1  0  0  0  0
  6 10  1  0  0  0  0
  6 11  1  1  0  0  0
  6 73  1  0  0  0  0
  7 74  1  0  0  0  0
  7 75  1  0  0  0  0
  7 76  1  0  0  0  0
  8 12  1  0  0  0  0
  8 13  1  1  0  0  0
  8 14  1  0  0  0  0
  9 15  1  0  0  0  0
  9 77  1  0  0  0  0
  9 78  1  0  0  0  0
 11 17  1  1  0  0  0
 11 18  1  0  0  0  0
 11 79  1  0  0  0  0
 12 80  1  0  0  0  0
 13 20  1  1  0  0  0
 13 19  1  0  0  0  0
 13 81  1  0  0  0  0
 14 82  1  0  0  0  0
 14 83  1  0  0  0  0
 14 84  1  0  0  0  0
 15 85  1  0  0  0  0
 15 86  1  0  0  0  0
 15 87  1  0  0  0  0
 16 10  1  0  0  0  0
 16 21  1  0  0  0  0
 16 22  1  0  0  0  0
 16 88  1  6  0  0  0
 17 23  1  0  0  0  0
 17 24  1  1  0  0  0
 17 89  1  0  0  0  0
 18 90  1  0  0  0  0
 18 91  1  0  0  0  0
 18 92  1  0  0  0  0
 19 93  1  0  0  0  0
 20 25  1  0  0  0  0
 20 26  1  0  0  0  0
 20 94  1  6  0  0  0
 21 27  1  0  0  0  0
 22 28  1  0  0  0  0
 22 95  1  0  0  0  0
 22 96  1  0  0  0  0
 24 30  1  1  0  0  0
 24 31  1  0  0  0  0
 24 32  1  0  0  0  0
 25 33  2  0  0  0  0
 25 34  1  0  0  0  0
 26 97  1  0  0  0  0
 26 98  1  0  0  0  0
 26 99  1  0  0  0  0
 27 35  1  1  0  0  0
 27 36  1  0  0  0  0
 27100  1  0  0  0  0
 28 37  1  0  0  0  0
 28 38  1  0  0  0  0
 28 35  1  1  0  0  0
 29 23  1  0  0  0  0
 29 39  1  0  0  0  0
 29 40  1  1  0  0  0
 29101  1  0  0  0  0
 30 41  1  0  0  0  0
 31 34  1  0  0  0  0
 31102  1  0  0  0  0
 31103  1  0  0  0  0
 32104  1  0  0  0  0
 32105  1  0  0  0  0
 32106  1  0  0  0  0
 34 42  1  0  0  0  0
 34107  1  1  0  0  0
 35 43  1  0  0  0  0
 35108  1  6  0  0  0
 36109  1  0  0  0  0
 36110  1  0  0  0  0
 36111  1  0  0  0  0
 37 44  1  0  0  0  0
 38112  1  0  0  0  0
 38113  1  0  0  0  0
 38114  1  0  0  0  0
 39 45  1  0  0  0  0
 40 47  1  1  0  0  0
 40 46  1  0  0  0  0
 40115  1  0  0  0  0
 41116  1  0  0  0  0
 41117  1  0  0  0  0
 41118  1  0  0  0  0
 42119  1  0  0  0  0
 42120  1  0  0  0  0
 42121  1  0  0  0  0
 43122  1  0  0  0  0
 44123  1  0  0  0  0
 44124  1  0  0  0  0
 44125  1  0  0  0  0
 45 48  1  0  0  0  0
 45 49  1  0  0  0  0
 45126  1  1  0  0  0
 46127  1  0  0  0  0
 47 48  1  0  0  0  0
 47 50  1  0  0  0  0
 47128  1  1  0  0  0
 48129  1  0  0  0  0
 48130  1  0  0  0  0
 49131  1  0  0  0  0
 49132  1  0  0  0  0
 49133  1  0  0  0  0
 50 51  1  0  0  0  0
 50 52  1  0  0  0  0
 51 53  1  0  0  0  0
 51134  1  0  0  0  0
 51135  1  0  0  0  0
 52136  1  0  0  0  0
 52137  1  0  0  0  0
 52138  1  0  0  0  0
 53 54  2  0  0  0  0
 53 55  1  0  0  0  0
 54 56  1  0  0  0  0
 54139  1  0  0  0  0
 55 57  2  0  0  0  0
 55140  1  0  0  0  0
 56 58  2  0  0  0  0
 56141  1  0  0  0  0
 57 58  1  0  0  0  0
 57142  1  0  0  0  0
 58 59  1  0  0  0  0
 59 60  1  0  0  0  0
 59 61  2  0  0  0  0
 60 62  2  0  0  0  0
 61 63  1  0  0  0  0
 61143  1  0  0  0  0
 62 63  1  0  0  0  0
 63 64  1  0  0  0  0
 64 65  1  0  0  0  0
 64144  1  0  0  0  0
 64145  1  0  0  0  0
 65 66  1  0  0  0  0
 65146  1  0  0  0  0
 65147  1  0  0  0  0
 66 67  1  0  0  0  0
 66148  1  0  0  0  0
 66149  1  0  0  0  0
 67 68  2  0  0  0  0
 67 69  1  0  0  0  0
 69 70  1  0  0  0  0
 69150  1  0  0  0  0
 70151  1  0  0  0  0
M  END
>  <Molecule Name>
2337357

>  <MolRegNo>
2337357

>  <m>
=

>  <Value>
986

>  <Unit>
nM

>  <Type>
IC50

>  <pValue>
6.01

>  <Ligand Efficiency>
0.12

>  <Binding Efficiency>
6.05

>  <Surface Efficiency>
2.28

>  <Assay Index>
977532

>  <Assay Category>


>  <Assay Organism>
Homo sapiens

>  <Target ID>
10869

>  <Target Name>
Histone deacetylase 8

>  <Target Organism>
Homo sapiens

>  <Target Description>
Target is a single protein chain

>  <Sequence Accession>
Q9BY41

>  <Reference>
Bioorg. Med. Chem. 23 (24), 7543-7564 (2015)

>  <Pubmed ID>
26585275

>  <DOI>
10.1016/j.bmc.2015.10.045

$$$$
2337331
 OpenBabel03252423453D

154158  0  0  0  0  0  0  0  0999 V2000
    0.5087   -0.4494    0.3500 O   0  0  0  0  0  0  0  0  0  0  0  0
    1.6563   -0.2210   -0.0166 C   0  0  0  0  0  0  0  0  0  0  0  0
    2.4559   -1.1647   -0.6056 O   0  0  0  0  0  0  0  0  0  0  0  0
    2.3176    1.1671    0.0816 C   0  0  2  0  0  0  0  0  0  0  0  0
    1.8377   -2.4452   -0.9537 C   0  0  2  0  0  0  0  0  0  0  0  0
    2.3936    1.6395    1.6456 C   0  0  2  0  0  0  0  0  0  0  0  0
    1.6397    2.0151   -1.0053 C   0  0  0  0  0  0  0  0  0  0  0  0
    2.6395   -3.6945   -0.3821 C   0  0  2  0  0  0  0  0  0  0  0  0
    1.7063   -2.4803   -2.4953 C   0  0  0  0  0  0  0  0  0  0  0  0
    1.9826    2.9975    1.8904 O   0  0  0  0  0  0  0  0  0  0  0  0
    3.8562    1.3894    2.3252 C   0  0  1  0  0  0  0  0  0  0  0  0
    2.0100   -4.9032   -0.8817 O   0  0  0  0  0  0  0  0  0  0  0  0
    2.6141   -3.8180    1.2110 C   0  0  2  0  0  0  0  0  0  0  0  0
    4.0472   -3.7163   -0.9987 C   0  0  0  0  0  0  0  0  0  0  0  0
    0.8349   -1.3622   -3.0486 C   0  0  0  0  0  0  0  0  0  0  0  0
    0.6269    3.3308    1.5583 C   0  0  2  0  0  0  0  0  0  0  0  0
    3.9644    1.3064    4.0221 C   0  0  2  0  0  0  0  0  0  0  0  0
    4.3798    0.1286    1.6297 C   0  0  0  0  0  0  0  0  0  0  0  0
    2.2230   -2.5740    1.8031 O   0  0  0  0  0  0  0  0  0  0  0  0
    3.9462   -4.2741    1.8703 C   0  0  1  0  0  0  0  0  0  0  0  0
    0.3268    4.6957    1.8048 O   0  0  0  0  0  0  0  0  0  0  0  0
   -0.4452    2.3620    2.0143 C   0  0  0  0  0  0  0  0  0  0  0  0
    4.5988    2.5683    4.5225 O   0  0  0  0  0  0  0  0  0  0  0  0
    4.7505   -0.0104    4.5855 C   0  0  1  0  0  0  0  0  0  0  0  0
    4.0935   -3.8070    3.3390 C   0  0  0  0  0  0  0  0  0  0  0  0
    4.2082   -5.7847    1.8246 C   0  0  0  0  0  0  0  0  0  0  0  0
   -0.5643    5.0601    2.8524 C   0  0  2  0  0  0  0  0  0  0  0  0
   -0.8334    2.5562    3.4781 C   0  0  2  0  0  0  0  0  0  0  0  0
    5.0240    2.8227    5.8972 C   0  0  2  0  0  0  0  0  0  0  0  0
    4.7035   -0.0799    6.0423 O   0  0  0  0  0  0  0  0  0  0  0  0
    4.1681   -1.4103    4.1246 C   0  0  0  0  0  0  0  0  0  0  0  0
    6.2601    0.1845    4.2978 C   0  0  0  0  0  0  0  0  0  0  0  0
    3.4369   -4.3554    4.2336 O   0  0  0  0  0  0  0  0  0  0  0  0
    5.0433   -2.6290    3.6841 C   0  0  2  0  0  0  0  0  0  0  0  0
   -1.4517    3.9739    3.5168 C   0  0  1  0  0  0  0  0  0  0  0  0
   -1.4857    6.1170    2.2135 C   0  0  0  0  0  0  0  0  0  0  0  0
    0.3275    2.3868    4.2983 O   0  0  0  0  0  0  0  0  0  0  0  0
   -1.8276    1.4237    3.7974 C   0  0  0  0  0  0  0  0  0  0  0  0
    3.9892    3.2412    6.7943 O   0  0  0  0  0  0  0  0  0  0  0  0
    6.2463    3.8048    6.1406 C   0  0  2  0  0  0  0  0  0  0  0  0
    3.4305    0.0538    6.6688 C   0  0  0  0  0  0  0  0  0  0  0  0
    6.1373   -2.4910    2.6173 C   0  0  0  0  0  0  0  0  0  0  0  0
   -1.8161    4.4359    4.8231 O   0  0  0  0  0  0  0  0  0  0  0  0
    0.1100    2.3582    5.7043 C   0  0  0  0  0  0  0  0  0  0  0  0
    3.6340    4.6203    6.8131 C   0  0  1  0  0  0  0  0  0  0  0  0
    6.6018    3.7510    7.5620 O   0  0  0  0  0  0  0  0  0  0  0  0
    5.9648    5.3047    5.7970 C   0  0  2  0  0  0  0  0  0  0  0  0
    4.7109    5.6877    6.6033 C   0  0  0  0  0  0  0  0  0  0  0  0
    2.4755    4.8669    5.8818 C   0  0  0  0  0  0  0  0  0  0  0  0
    6.1619    5.6790    4.3653 N   0  0  0  0  0  0  0  0  0  0  0  0
    5.7550    6.9845    3.8194 C   0  0  0  0  0  0  0  0  0  0  0  0
    5.7169    4.6615    3.4247 C   0  0  0  0  0  0  0  0  0  0  0  0
    6.2499    8.2393    4.4879 C   0  0  0  0  0  0  0  0  0  0  0  0
    7.4488    8.8705    4.1124 C   0  0  0  0  0  0  0  0  0  0  0  0
    5.4517    8.8380    5.4618 C   0  0  0  0  0  0  0  0  0  0  0  0
    7.8930    9.9957    4.8150 C   0  0  0  0  0  0  0  0  0  0  0  0
    5.9013    9.9331    6.1774 C   0  0  0  0  0  0  0  0  0  0  0  0
    7.1497   10.4746    5.8991 C   0  0  0  0  0  0  0  0  0  0  0  0
    7.6999   11.3612    6.8829 C   0  0  0  0  0  0  0  0  0  0  0  0
    6.9824   12.2973    7.5943 N   0  0  0  0  0  0  0  0  0  0  0  0
    8.9348   11.1879    7.4631 C   0  0  0  0  0  0  0  0  0  0  0  0
    7.7269   12.6749    8.6346 N   0  0  0  0  0  0  0  0  0  0  0  0
    8.8769   11.9581    8.5786 N   0  0  0  0  0  0  0  0  0  0  0  0
    9.8252   12.0365    9.6494 C   0  0  0  0  0  0  0  0  0  0  0  0
   10.8147   13.1907    9.4392 C   0  0  0  0  0  0  0  0  0  0  0  0
   10.1751   14.5828    9.4680 C   0  0  0  0  0  0  0  0  0  0  0  0
    9.5232   14.9132   10.8089 C   0  0  0  0  0  0  0  0  0  0  0  0
    8.9096   16.2840   10.7978 C   0  0  0  0  0  0  0  0  0  0  0  0
    9.3414   17.2203   11.4689 O   0  0  0  0  0  0  0  0  0  0  0  0
    7.8207   16.4223    9.9771 N   0  0  0  0  0  0  0  0  0  0  0  0
    7.1635   17.6739   10.0341 O   0  0  0  0  0  0  0  0  0  0  0  0
    3.3299    1.1123   -0.3181 H   0  0  0  0  0  0  0  0  0  0  0  0
    0.8160   -2.5166   -0.5585 H   0  0  0  0  0  0  0  0  0  0  0  0
    1.7465    0.9797    2.2281 H   0  0  0  0  0  0  0  0  0  0  0  0
    0.5459    1.9789   -0.9534 H   0  0  0  0  0  0  0  0  0  0  0  0
    1.8819    1.6153   -1.9988 H   0  0  0  0  0  0  0  0  0  0  0  0
    1.9989    3.0490   -1.0059 H   0  0  0  0  0  0  0  0  0  0  0  0
    1.2873   -3.4394   -2.8157 H   0  0  0  0  0  0  0  0  0  0  0  0
    2.6910   -2.3706   -2.9622 H   0  0  0  0  0  0  0  0  0  0  0  0
    4.4976    2.2213    2.0317 H   0  0  0  0  0  0  0  0  0  0  0  0
    1.1021   -4.9545   -0.5326 H   0  0  0  0  0  0  0  0  0  0  0  0
    1.8525   -4.5438    1.4985 H   0  0  0  0  0  0  0  0  0  0  0  0
    4.0095   -3.7943   -2.0895 H   0  0  0  0  0  0  0  0  0  0  0  0
    4.6097   -4.6098   -0.7066 H   0  0  0  0  0  0  0  0  0  0  0  0
    4.6224   -2.8261   -0.7319 H   0  0  0  0  0  0  0  0  0  0  0  0
   -0.1427   -1.3381   -2.5592 H   0  0  0  0  0  0  0  0  0  0  0  0
    0.6796   -1.5060   -4.1225 H   0  0  0  0  0  0  0  0  0  0  0  0
    1.3168   -0.3905   -2.9187 H   0  0  0  0  0  0  0  0  0  0  0  0
    0.5703    3.3395    0.4853 H   0  0  0  0  0  0  0  0  0  0  0  0
    2.9351    1.3244    4.3916 H   0  0  0  0  0  0  0  0  0  0  0  0
    3.6137   -0.6455    1.6014 H   0  0  0  0  0  0  0  0  0  0  0  0
    5.2431   -0.2852    2.0901 H   0  0  0  0  0  0  0  0  0  0  0  0
    4.7082    0.2900    0.6066 H   0  0  0  0  0  0  0  0  0  0  0  0
    1.3211   -2.3546    1.5038 H   0  0  0  0  0  0  0  0  0  0  0  0
    4.7579   -3.8351    1.3114 H   0  0  0  0  0  0  0  0  0  0  0  0
   -0.1593    1.3261    1.8403 H   0  0  0  0  0  0  0  0  0  0  0  0
   -1.3371    2.5260    1.3896 H   0  0  0  0  0  0  0  0  0  0  0  0
    3.5305   -6.3413    2.4791 H   0  0  0  0  0  0  0  0  0  0  0  0
    5.2310   -5.9906    2.1709 H   0  0  0  0  0  0  0  0  0  0  0  0
    4.1169   -6.1883    0.8138 H   0  0  0  0  0  0  0  0  0  0  0  0
    0.0420    5.5674    3.6105 H   0  0  0  0  0  0  0  0  0  0  0  0
    5.4023    1.9043    6.3308 H   0  0  0  0  0  0  0  0  0  0  0  0
    3.3291   -1.2534    3.4489 H   0  0  0  0  0  0  0  0  0  0  0  0
    3.6392   -1.8338    4.9888 H   0  0  0  0  0  0  0  0  0  0  0  0
    6.6609    1.0764    4.7810 H   0  0  0  0  0  0  0  0  0  0  0  0
    6.5127    0.3246    3.2460 H   0  0  0  0  0  0  0  0  0  0  0  0
    6.8480   -0.6428    4.6986 H   0  0  0  0  0  0  0  0  0  0  0  0
    5.5850   -2.9618    4.5852 H   0  0  0  0  0  0  0  0  0  0  0  0
   -2.3975    3.9173    2.9643 H   0  0  0  0  0  0  0  0  0  0  0  0
   -2.0940    5.6610    1.4188 H   0  0  0  0  0  0  0  0  0  0  0  0
   -0.9035    6.9060    1.7208 H   0  0  0  0  0  0  0  0  0  0  0  0
   -2.1533    6.5693    2.9466 H   0  0  0  0  0  0  0  0  0  0  0  0
   -1.2800    0.4730    3.8998 H   0  0  0  0  0  0  0  0  0  0  0  0
   -2.5727    1.2951    3.0088 H   0  0  0  0  0  0  0  0  0  0  0  0
   -2.3606    1.5878    4.7356 H   0  0  0  0  0  0  0  0  0  0  0  0
    7.1433    3.4654    5.6166 H   0  0  0  0  0  0  0  0  0  0  0  0
    3.5853    0.0000    7.7493 H   0  0  0  0  0  0  0  0  0  0  0  0
    2.7334   -0.7336    6.3819 H   0  0  0  0  0  0  0  0  0  0  0  0
    2.9795    1.0208    6.4589 H   0  0  0  0  0  0  0  0  0  0  0  0
    5.7515   -2.1622    1.6462 H   0  0  0  0  0  0  0  0  0  0  0  0
    6.6182   -3.4608    2.4417 H   0  0  0  0  0  0  0  0  0  0  0  0
    6.9446   -1.8142    2.8916 H   0  0  0  0  0  0  0  0  0  0  0  0
   -2.2336    3.7042    5.3026 H   0  0  0  0  0  0  0  0  0  0  0  0
    1.0413    2.0349    6.1770 H   0  0  0  0  0  0  0  0  0  0  0  0
   -0.6510    1.6439    6.0088 H   0  0  0  0  0  0  0  0  0  0  0  0
   -0.1349    3.3512    6.0860 H   0  0  0  0  0  0  0  0  0  0  0  0
    3.2391    4.7737    7.8294 H   0  0  0  0  0  0  0  0  0  0  0  0
    5.7738    3.5747    8.0525 H   0  0  0  0  0  0  0  0  0  0  0  0
    6.7638    5.8790    6.2951 H   0  0  0  0  0  0  0  0  0  0  0  0
    5.0579    5.9792    7.6104 H   0  0  0  0  0  0  0  0  0  0  0  0
    4.2334    6.5882    6.2301 H   0  0  0  0  0  0  0  0  0  0  0  0
    2.7903    4.8757    4.8392 H   0  0  0  0  0  0  0  0  0  0  0  0
    1.9706    5.8075    6.1205 H   0  0  0  0  0  0  0  0  0  0  0  0
    1.7686    4.0637    6.0071 H   0  0  0  0  0  0  0  0  0  0  0  0
    4.6661    7.0365    3.6962 H   0  0  0  0  0  0  0  0  0  0  0  0
    6.1610    7.0385    2.7965 H   0  0  0  0  0  0  0  0  0  0  0  0
    5.9292    4.9430    2.3782 H   0  0  0  0  0  0  0  0  0  0  0  0
    4.6249    4.5455    3.4855 H   0  0  0  0  0  0  0  0  0  0  0  0
    6.2590    3.7392    3.5586 H   0  0  0  0  0  0  0  0  0  0  0  0
    8.0399    8.4861    3.2857 H   0  0  0  0  0  0  0  0  0  0  0  0
    4.4718    8.4432    5.6967 H   0  0  0  0  0  0  0  0  0  0  0  0
    8.8370   10.4590    4.5372 H   0  0  0  0  0  0  0  0  0  0  0  0
    5.2995   10.3120    7.0003 H   0  0  0  0  0  0  0  0  0  0  0  0
    9.7464   10.5051    7.2583 H   0  0  0  0  0  0  0  0  0  0  0  0
   10.3703   11.0865    9.6721 H   0  0  0  0  0  0  0  0  0  0  0  0
    9.2873   12.1167   10.5963 H   0  0  0  0  0  0  0  0  0  0  0  0
   11.3105   13.0600    8.4694 H   0  0  0  0  0  0  0  0  0  0  0  0
   11.5948   13.1344   10.2050 H   0  0  0  0  0  0  0  0  0  0  0  0
    9.4492   14.6817    8.6517 H   0  0  0  0  0  0  0  0  0  0  0  0
   10.9521   15.3257    9.2540 H   0  0  0  0  0  0  0  0  0  0  0  0
   10.2721   14.8710   11.6088 H   0  0  0  0  0  0  0  0  0  0  0  0
    8.7331   14.1987   11.0679 H   0  0  0  0  0  0  0  0  0  0  0  0
    7.2712   15.6312    9.6421 H   0  0  0  0  0  0  0  0  0  0  0  0
    7.7252   18.1723   10.6686 H   0  0  0  0  0  0  0  0  0  0  0  0
  1  2  2  0  0  0  0
  2  3  1  0  0  0  0
  2  4  1  0  0  0  0
  3  5  1  0  0  0  0
  4  6  1  1  0  0  0
  4  7  1  0  0  0  0
  4 72  1  0  0  0  0
  5  8  1  1  0  0  0
  5  9  1  0  0  0  0
  5 73  1  0  0  0  0
  6 10  1  0  0  0  0
  6 11  1  1  0  0  0
  6 74  1  0  0  0  0
  7 75  1  0  0  0  0
  7 76  1  0  0  0  0
  7 77  1  0  0  0  0
  8 12  1  0  0  0  0
  8 13  1  1  0  0  0
  8 14  1  0  0  0  0
  9 15  1  0  0  0  0
  9 78  1  0  0  0  0
  9 79  1  0  0  0  0
 11 17  1  1  0  0  0
 11 18  1  0  0  0  0
 11 80  1  0  0  0  0
 12 81  1  0  0  0  0
 13 20  1  1  0  0  0
 13 19  1  0  0  0  0
 13 82  1  0  0  0  0
 14 83  1  0  0  0  0
 14 84  1  0  0  0  0
 14 85  1  0  0  0  0
 15 86  1  0  0  0  0
 15 87  1  0  0  0  0
 15 88  1  0  0  0  0
 16 10  1  0  0  0  0
 16 21  1  0  0  0  0
 16 22  1  0  0  0  0
 16 89  1  6  0  0  0
 17 23  1  0  0  0  0
 17 24  1  1  0  0  0
 17 90  1  0  0  0  0
 18 91  1  0  0  0  0
 18 92  1  0  0  0  0
 18 93  1  0  0  0  0
 19 94  1  0  0  0  0
 20 25  1  0  0  0  0
 20 26  1  0  0  0  0
 20 95  1  6  0  0  0
 21 27  1  0  0  0  0
 22 28  1  0  0  0  0
 22 96  1  0  0  0  0
 22 97  1  0  0  0  0
 24 30  1  1  0  0  0
 24 31  1  0  0  0  0
 24 32  1  0  0  0  0
 25 33  2  0  0  0  0
 25 34  1  0  0  0  0
 26 98  1  0  0  0  0
 26 99  1  0  0  0  0
 26100  1  0  0  0  0
 27 35  1  1  0  0  0
 27 36  1  0  0  0  0
 27101  1  0  0  0  0
 28 37  1  0  0  0  0
 28 38  1  0  0  0  0
 28 35  1  1  0  0  0
 29 23  1  0  0  0  0
 29 39  1  0  0  0  0
 29 40  1  6  0  0  0
 29102  1  0  0  0  0
 30 41  1  0  0  0  0
 31 34  1  0  0  0  0
 31103  1  0  0  0  0
 31104  1  0  0  0  0
 32105  1  0  0  0  0
 32106  1  0  0  0  0
 32107  1  0  0  0  0
 34 42  1  0  0  0  0
 34108  1  1  0  0  0
 35 43  1  0  0  0  0
 35109  1  6  0  0  0
 36110  1  0  0  0  0
 36111  1  0  0  0  0
 36112  1  0  0  0  0
 37 44  1  0  0  0  0
 38113  1  0  0  0  0
 38114  1  0  0  0  0
 38115  1  0  0  0  0
 39 45  1  0  0  0  0
 40 47  1  6  0  0  0
 40 46  1  0  0  0  0
 40116  1  0  0  0  0
 41117  1  0  0  0  0
 41118  1  0  0  0  0
 41119  1  0  0  0  0
 42120  1  0  0  0  0
 42121  1  0  0  0  0
 42122  1  0  0  0  0
 43123  1  0  0  0  0
 44124  1  0  0  0  0
 44125  1  0  0  0  0
 44126  1  0  0  0  0
 45 48  1  0  0  0  0
 45 49  1  0  0  0  0
 45127  1  1  0  0  0
 46128  1  0  0  0  0
 47 48  1  0  0  0  0
 47 50  1  0  0  0  0
 47129  1  1  0  0  0
 48130  1  0  0  0  0
 48131  1  0  0  0  0
 49132  1  0  0  0  0
 49133  1  0  0  0  0
 49134  1  0  0  0  0
 50 51  1  0  0  0  0
 50 52  1  0  0  0  0
 51 53  1  0  0  0  0
 51135  1  0  0  0  0
 51136  1  0  0  0  0
 52137  1  0  0  0  0
 52138  1  0  0  0  0
 52139  1  0  0  0  0
 53 54  2  0  0  0  0
 53 55  1  0  0  0  0
 54 56  1  0  0  0  0
 54140  1  0  0  0  0
 55 57  2  0  0  0  0
 55141  1  0  0  0  0
 56 58  2  0  0  0  0
 56142  1  0  0  0  0
 57 58  1  0  0  0  0
 57143  1  0  0  0  0
 58 59  1  0  0  0  0
 59 60  1  0  0  0  0
 59 61  2  0  0  0  0
 60 62  2  0  0  0  0
 61 63  1  0  0  0  0
 61144  1  0  0  0  0
 62 63  1  0  0  0  0
 63 64  1  0  0  0  0
 64 65  1  0  0  0  0
 64145  1  0  0  0  0
 64146  1  0  0  0  0
 65 66  1  0  0  0  0
 65147  1  0  0  0  0
 65148  1  0  0  0  0
 66 67  1  0  0  0  0
 66149  1  0  0  0  0
 66150  1  0  0  0  0
 67 68  1  0  0  0  0
 67151  1  0  0  0  0
 67152  1  0  0  0  0
 68 69  2  0  0  0  0
 68 70  1  0  0  0  0
 70 71  1  0  0  0  0
 70153  1  0  0  0  0
 71154  1  0  0  0  0
M  END
>  <Molecule Name>
2337331

>  <MolRegNo>
2337331

>  <m>
=

>  <Value>
877

>  <Unit>
nM

>  <Type>
IC50

>  <pValue>
6.06

>  <Ligand Efficiency>
0

>  <Binding Efficiency>
6.02

>  <Surface Efficiency>
0

>  <Assay Index>
977532

>  <Assay Category>


>  <Assay Organism>
Homo sapiens

>  <Target ID>
10869

>  <Target Name>
Histone deacetylase 8

>  <Target Organism>
Homo sapiens

>  <Target Description>
Target is a single protein chain

>  <Sequence Accession>
Q9BY41

>  <Reference>
Bioorg. Med. Chem. 23 (24), 7543-7564 (2015)

>  <Pubmed ID>
26585275

>  <DOI>
10.1016/j.bmc.2015.10.045

$$$$
2337386
 OpenBabel03252423453D

157161  0  0  0  0  0  0  0  0999 V2000
    0.6127   -0.7358    0.3509 O   0  0  0  0  0  0  0  0  0  0  0  0
    1.7171   -0.4538   -0.0963 C   0  0  0  0  0  0  0  0  0  0  0  0
    2.5542   -1.3466   -0.6789 O   0  0  0  0  0  0  0  0  0  0  0  0
    2.2923    0.9294   -0.0859 C   0  0  2  0  0  0  0  0  0  0  0  0
    1.9647   -2.6201   -1.0091 C   0  0  2  0  0  0  0  0  0  0  0  0
    2.4522    1.3547    1.4187 C   0  0  2  0  0  0  0  0  0  0  0  0
    1.3427    1.7180   -0.9956 C   0  0  0  0  0  0  0  0  0  0  0  0
    2.7798   -3.8184   -0.4004 C   0  0  2  0  0  0  0  0  0  0  0  0
    1.8671   -2.6246   -2.5459 C   0  0  0  0  0  0  0  0  0  0  0  0
    1.9253    2.6868    1.5068 O   0  0  0  0  0  0  0  0  0  0  0  0
    4.1096    1.1247    1.9947 C   0  0  1  0  0  0  0  0  0  0  0  0
    2.2035   -5.0431   -0.9016 O   0  0  0  0  0  0  0  0  0  0  0  0
    2.6994   -3.9272    1.1988 C   0  0  2  0  0  0  0  0  0  0  0  0
    4.2135   -3.7741   -0.9671 C   0  0  0  0  0  0  0  0  0  0  0  0
    1.0355   -1.4631   -3.0773 C   0  0  0  0  0  0  0  0  0  0  0  0
    0.5299    3.0661    1.4742 C   0  0  2  0  0  0  0  0  0  0  0  0
    4.5568    1.0624    3.6663 C   0  0  2  0  0  0  0  0  0  0  0  0
    4.5337   -0.1590    1.2898 C   0  0  0  0  0  0  0  0  0  0  0  0
    2.3135   -2.6888    1.7931 O   0  0  0  0  0  0  0  0  0  0  0  0
    4.0138   -4.3766    1.8668 C   0  0  1  0  0  0  0  0  0  0  0  0
    0.3241    4.4384    1.7690 O   0  0  0  0  0  0  0  0  0  0  0  0
   -0.4679    2.1280    2.0976 C   0  0  0  0  0  0  0  0  0  0  0  0
    5.2621    2.2475    4.3356 O   0  0  0  0  0  0  0  0  0  0  0  0
    5.0850   -0.2707    4.3291 C   0  0  1  0  0  0  0  0  0  0  0  0
    4.1908   -3.9348    3.3122 C   0  0  0  0  0  0  0  0  0  0  0  0
    4.3542   -5.8578    1.8271 C   0  0  0  0  0  0  0  0  0  0  0  0
   -0.4760    4.8909    2.8458 C   0  0  2  0  0  0  0  0  0  0  0  0
   -0.8126    2.4236    3.5617 C   0  0  2  0  0  0  0  0  0  0  0  0
    6.6592    2.6670    4.4762 C   0  0  2  0  0  0  0  0  0  0  0  0
    4.9946   -0.1496    5.7814 O   0  0  0  0  0  0  0  0  0  0  0  0
    4.3905   -1.5947    3.9677 C   0  0  0  0  0  0  0  0  0  0  0  0
    6.5533   -0.3774    3.9481 C   0  0  0  0  0  0  0  0  0  0  0  0
    3.5089   -4.4160    4.2211 O   0  0  0  0  0  0  0  0  0  0  0  0
    5.2305   -2.8518    3.6099 C   0  0  2  0  0  0  0  0  0  0  0  0
   -1.3843    3.8677    3.5688 C   0  0  1  0  0  0  0  0  0  0  0  0
   -1.3501    6.0106    2.2436 C   0  0  0  0  0  0  0  0  0  0  0  0
    0.3358    2.2225    4.3929 O   0  0  0  0  0  0  0  0  0  0  0  0
   -1.8164    1.3165    3.9231 C   0  0  0  0  0  0  0  0  0  0  0  0
    7.6536    1.8295    5.1194 O   0  0  0  0  0  0  0  0  0  0  0  0
    6.9839    4.0839    5.0815 C   0  0  2  0  0  0  0  0  0  0  0  0
    3.7435   -0.1799    6.4767 C   0  0  0  0  0  0  0  0  0  0  0  0
    6.3486   -2.8527    2.5446 C   0  0  0  0  0  0  0  0  0  0  0  0
   -1.6939    4.3915    4.8659 O   0  0  0  0  0  0  0  0  0  0  0  0
    0.1449    2.3462    5.8016 C   0  0  0  0  0  0  0  0  0  0  0  0
    7.9134    1.7782    6.5111 C   0  0  1  0  0  0  0  0  0  0  0  0
    8.3740    4.3846    4.6784 O   0  0  0  0  0  0  0  0  0  0  0  0
    7.0077    4.1962    6.6420 C   0  0  2  0  0  0  0  0  0  0  0  0
    7.8788    3.0928    7.2668 C   0  0  0  0  0  0  0  0  0  0  0  0
    7.1832    0.6735    7.2461 C   0  0  0  0  0  0  0  0  0  0  0  0
    5.7825    4.4532    7.4375 N   0  0  0  0  0  0  0  0  0  0  0  0
    4.5472    3.7749    7.0476 C   0  0  0  0  0  0  0  0  0  0  0  0
    5.5621    5.8810    7.6339 C   0  0  0  0  0  0  0  0  0  0  0  0
    3.7758    4.3074    5.8515 C   0  0  0  0  0  0  0  0  0  0  0  0
    3.0502    3.4183    5.1521 C   0  0  0  0  0  0  0  0  0  0  0  0
    3.7479    5.5840    5.2825 C   0  0  0  0  0  0  0  0  0  0  0  0
    2.8938    3.5814    3.7920 C   0  0  0  0  0  0  0  0  0  0  0  0
    3.5188    5.7854    3.9011 C   0  0  0  0  0  0  0  0  0  0  0  0
    3.2969    4.7052    3.0965 C   0  0  0  0  0  0  0  0  0  0  0  0
    3.4127    4.8603    1.6151 C   0  0  0  0  0  0  0  0  0  0  0  0
    2.6232    5.7088    0.8748 N   0  0  0  0  0  0  0  0  0  0  0  0
    4.3525    4.3101    0.7562 C   0  0  0  0  0  0  0  0  0  0  0  0
    2.9694    5.6140   -0.4064 N   0  0  0  0  0  0  0  0  0  0  0  0
    4.0105    4.7671   -0.4930 N   0  0  0  0  0  0  0  0  0  0  0  0
    4.7842    4.7139   -1.7238 C   0  0  0  0  0  0  0  0  0  0  0  0
    4.8312    3.3926   -2.5103 C   0  0  0  0  0  0  0  0  0  0  0  0
    3.5259    2.9527   -3.1668 C   0  0  0  0  0  0  0  0  0  0  0  0
    2.8332    3.8978   -4.1486 C   0  0  0  0  0  0  0  0  0  0  0  0
    1.4118    3.4282   -4.5050 C   0  0  0  0  0  0  0  0  0  0  0  0
    1.3516    2.0999   -5.2306 C   0  0  0  0  0  0  0  0  0  0  0  0
    2.2910    1.5992   -5.8434 O   0  0  0  0  0  0  0  0  0  0  0  0
    0.1084    1.5066   -5.1928 N   0  0  0  0  0  0  0  0  0  0  0  0
    0.0188    0.2361   -5.8060 O   0  0  0  0  0  0  0  0  0  0  0  0
    3.2569    0.9745   -0.5989 H   0  0  0  0  0  0  0  0  0  0  0  0
    0.9379   -2.7159   -0.6359 H   0  0  0  0  0  0  0  0  0  0  0  0
    1.8761    0.7035    2.0837 H   0  0  0  0  0  0  0  0  0  0  0  0
    0.2855    1.5574   -0.7676 H   0  0  0  0  0  0  0  0  0  0  0  0
    1.4408    1.3906   -2.0334 H   0  0  0  0  0  0  0  0  0  0  0  0
    1.5649    2.7893   -0.9707 H   0  0  0  0  0  0  0  0  0  0  0  0
    1.4356   -3.5661   -2.8928 H   0  0  0  0  0  0  0  0  0  0  0  0
    2.8617   -2.5144   -2.9911 H   0  0  0  0  0  0  0  0  0  0  0  0
    4.7104    1.9252    1.5850 H   0  0  0  0  0  0  0  0  0  0  0  0
    1.2802   -5.0898   -0.5922 H   0  0  0  0  0  0  0  0  0  0  0  0
    1.9234   -4.6527    1.4745 H   0  0  0  0  0  0  0  0  0  0  0  0
    4.2156   -3.8418   -2.0587 H   0  0  0  0  0  0  0  0  0  0  0  0
    4.8060   -4.6411   -0.6614 H   0  0  0  0  0  0  0  0  0  0  0  0
    4.7408   -2.8586   -0.6793 H   0  0  0  0  0  0  0  0  0  0  0  0
    0.0733   -1.3809   -2.5629 H   0  0  0  0  0  0  0  0  0  0  0  0
    0.8522   -1.5999   -4.1442 H   0  0  0  0  0  0  0  0  0  0  0  0
    1.5732   -0.5183   -2.9646 H   0  0  0  0  0  0  0  0  0  0  0  0
    0.2499    3.1058    0.4304 H   0  0  0  0  0  0  0  0  0  0  0  0
    3.5579    1.1121    4.0965 H   0  0  0  0  0  0  0  0  0  0  0  0
    3.7791   -0.9282    1.4131 H   0  0  0  0  0  0  0  0  0  0  0  0
    5.4597   -0.5419    1.6482 H   0  0  0  0  0  0  0  0  0  0  0  0
    4.7155   -0.0340    0.2233 H   0  0  0  0  0  0  0  0  0  0  0  0
    1.4829   -2.3599    1.4030 H   0  0  0  0  0  0  0  0  0  0  0  0
    4.7896   -3.8868    1.3028 H   0  0  0  0  0  0  0  0  0  0  0  0
   -0.1672    1.0909    1.9603 H   0  0  0  0  0  0  0  0  0  0  0  0
   -1.3986    2.2538    1.5198 H   0  0  0  0  0  0  0  0  0  0  0  0
    3.7134   -6.4362    2.4981 H   0  0  0  0  0  0  0  0  0  0  0  0
    5.3876   -5.9968    2.1760 H   0  0  0  0  0  0  0  0  0  0  0  0
    4.2859   -6.2699    0.8206 H   0  0  0  0  0  0  0  0  0  0  0  0
    0.1936    5.3744    3.5669 H   0  0  0  0  0  0  0  0  0  0  0  0
    7.0040    2.7320    3.4351 H   0  0  0  0  0  0  0  0  0  0  0  0
    3.5502   -1.4081    3.3057 H   0  0  0  0  0  0  0  0  0  0  0  0
    3.8600   -1.9589    4.8499 H   0  0  0  0  0  0  0  0  0  0  0  0
    7.0707    0.5410    3.8979 H   0  0  0  0  0  0  0  0  0  0  0  0
    6.7112   -0.5826    2.9030 H   0  0  0  0  0  0  0  0  0  0  0  0
    7.1275   -1.0446    4.5903 H   0  0  0  0  0  0  0  0  0  0  0  0
    5.7367   -3.1651    4.5332 H   0  0  0  0  0  0  0  0  0  0  0  0
   -2.3460    3.8346    3.0421 H   0  0  0  0  0  0  0  0  0  0  0  0
   -1.9933    5.6083    1.4493 H   0  0  0  0  0  0  0  0  0  0  0  0
   -0.7348    6.7831    1.7665 H   0  0  0  0  0  0  0  0  0  0  0  0
   -1.9878    6.4876    2.9935 H   0  0  0  0  0  0  0  0  0  0  0  0
   -1.2678    0.3682    4.0276 H   0  0  0  0  0  0  0  0  0  0  0  0
   -2.5727    1.1743    3.1461 H   0  0  0  0  0  0  0  0  0  0  0  0
   -2.3295    1.4975    4.8673 H   0  0  0  0  0  0  0  0  0  0  0  0
    6.3908    4.8852    4.6444 H   0  0  0  0  0  0  0  0  0  0  0  0
    3.9594   -0.1866    7.5516 H   0  0  0  0  0  0  0  0  0  0  0  0
    3.1321   -1.0650    6.2928 H   0  0  0  0  0  0  0  0  0  0  0  0
    3.1257    0.6916    6.2942 H   0  0  0  0  0  0  0  0  0  0  0  0
    6.0347   -2.4320    1.5851 H   0  0  0  0  0  0  0  0  0  0  0  0
    6.6940   -3.8716    2.3525 H   0  0  0  0  0  0  0  0  0  0  0  0
    7.2689   -2.3474    2.8359 H   0  0  0  0  0  0  0  0  0  0  0  0
   -2.0828    3.6876    5.4053 H   0  0  0  0  0  0  0  0  0  0  0  0
    1.0161    1.9343    6.3137 H   0  0  0  0  0  0  0  0  0  0  0  0
   -0.7025    1.7628    6.1615 H   0  0  0  0  0  0  0  0  0  0  0  0
    0.0589    3.3917    6.1043 H   0  0  0  0  0  0  0  0  0  0  0  0
    8.9610    1.4410    6.5472 H   0  0  0  0  0  0  0  0  0  0  0  0
    8.8592    3.5360    4.7553 H   0  0  0  0  0  0  0  0  0  0  0  0
    7.6347    5.0792    6.8528 H   0  0  0  0  0  0  0  0  0  0  0  0
    8.9166    3.4657    7.2804 H   0  0  0  0  0  0  0  0  0  0  0  0
    7.6582    2.9327    8.3317 H   0  0  0  0  0  0  0  0  0  0  0  0
    6.1739    0.9865    7.5130 H   0  0  0  0  0  0  0  0  0  0  0  0
    7.6981    0.4128    8.1760 H   0  0  0  0  0  0  0  0  0  0  0  0
    7.1476   -0.2380    6.6482 H   0  0  0  0  0  0  0  0  0  0  0  0
    3.8625    3.7221    7.9031 H   0  0  0  0  0  0  0  0  0  0  0  0
    4.8176    2.7182    6.8646 H   0  0  0  0  0  0  0  0  0  0  0  0
    4.5494    6.0807    8.0070 H   0  0  0  0  0  0  0  0  0  0  0  0
    5.7236    6.4341    6.7024 H   0  0  0  0  0  0  0  0  0  0  0  0
    6.2557    6.2954    8.3655 H   0  0  0  0  0  0  0  0  0  0  0  0
    2.8546    2.4265    5.5702 H   0  0  0  0  0  0  0  0  0  0  0  0
    3.9369    6.4699    5.8597 H   0  0  0  0  0  0  0  0  0  0  0  0
    2.4552    2.7041    3.3503 H   0  0  0  0  0  0  0  0  0  0  0  0
    3.5482    6.7820    3.4848 H   0  0  0  0  0  0  0  0  0  0  0  0
    5.2125    3.6777    0.8970 H   0  0  0  0  0  0  0  0  0  0  0  0
    5.8090    4.9771   -1.4389 H   0  0  0  0  0  0  0  0  0  0  0  0
    4.4251    5.5172   -2.3756 H   0  0  0  0  0  0  0  0  0  0  0  0
    5.1516    2.5876   -1.8347 H   0  0  0  0  0  0  0  0  0  0  0  0
    5.5973    3.4656   -3.2916 H   0  0  0  0  0  0  0  0  0  0  0  0
    2.8497    2.8161   -2.3497 H   0  0  0  0  0  0  0  0  0  0  0  0
    3.6701    1.9677   -3.6277 H   0  0  0  0  0  0  0  0  0  0  0  0
    3.4372    4.0074   -5.0546 H   0  0  0  0  0  0  0  0  0  0  0  0
    2.7320    4.8885   -3.6943 H   0  0  0  0  0  0  0  0  0  0  0  0
    0.9461    4.1690   -5.1668 H   0  0  0  0  0  0  0  0  0  0  0  0
    0.7960    3.3711   -3.5991 H   0  0  0  0  0  0  0  0  0  0  0  0
   -0.5839    1.7080   -4.4789 H   0  0  0  0  0  0  0  0  0  0  0  0
    0.9192    0.1175   -6.1820 H   0  0  0  0  0  0  0  0  0  0  0  0
  1  2  2  0  0  0  0
  2  3  1  0  0  0  0
  2  4  1  0  0  0  0
  3  5  1  0  0  0  0
  4  6  1  1  0  0  0
  4  7  1  0  0  0  0
  4 73  1  0  0  0  0
  5  8  1  1  0  0  0
  5  9  1  0  0  0  0
  5 74  1  0  0  0  0
  6 10  1  0  0  0  0
  6 11  1  1  0  0  0
  6 75  1  0  0  0  0
  7 76  1  0  0  0  0
  7 77  1  0  0  0  0
  7 78  1  0  0  0  0
  8 12  1  0  0  0  0
  8 13  1  1  0  0  0
  8 14  1  0  0  0  0
  9 15  1  0  0  0  0
  9 79  1  0  0  0  0
  9 80  1  0  0  0  0
 11 17  1  1  0  0  0
 11 18  1  0  0  0  0
 11 81  1  0  0  0  0
 12 82  1  0  0  0  0
 13 20  1  1  0  0  0
 13 19  1  0  0  0  0
 13 83  1  0  0  0  0
 14 84  1  0  0  0  0
 14 85  1  0  0  0  0
 14 86  1  0  0  0  0
 15 87  1  0  0  0  0
 15 88  1  0  0  0  0
 15 89  1  0  0  0  0
 16 10  1  0  0  0  0
 16 21  1  0  0  0  0
 16 22  1  0  0  0  0
 16 90  1  6  0  0  0
 17 23  1  0  0  0  0
 17 24  1  1  0  0  0
 17 91  1  0  0  0  0
 18 92  1  0  0  0  0
 18 93  1  0  0  0  0
 18 94  1  0  0  0  0
 19 95  1  0  0  0  0
 20 25  1  0  0  0  0
 20 26  1  0  0  0  0
 20 96  1  6  0  0  0
 21 27  1  0  0  0  0
 22 28  1  0  0  0  0
 22 97  1  0  0  0  0
 22 98  1  0  0  0  0
 24 30  1  1  0  0  0
 24 31  1  0  0  0  0
 24 32  1  0  0  0  0
 25 33  2  0  0  0  0
 25 34  1  0  0  0  0
 26 99  1  0  0  0  0
 26100  1  0  0  0  0
 26101  1  0  0  0  0
 27 35  1  1  0  0  0
 27 36  1  0  0  0  0
 27102  1  0  0  0  0
 28 37  1  0  0  0  0
 28 38  1  0  0  0  0
 28 35  1  1  0  0  0
 29 23  1  0  0  0  0
 29 39  1  0  0  0  0
 29 40  1  1  0  0  0
 29103  1  0  0  0  0
 30 41  1  0  0  0  0
 31 34  1  0  0  0  0
 31104  1  0  0  0  0
 31105  1  0  0  0  0
 32106  1  0  0  0  0
 32107  1  0  0  0  0
 32108  1  0  0  0  0
 34 42  1  0  0  0  0
 34109  1  1  0  0  0
 35 43  1  0  0  0  0
 35110  1  6  0  0  0
 36111  1  0  0  0  0
 36112  1  0  0  0  0
 36113  1  0  0  0  0
 37 44  1  0  0  0  0
 38114  1  0  0  0  0
 38115  1  0  0  0  0
 38116  1  0  0  0  0
 39 45  1  0  0  0  0
 40 47  1  1  0  0  0
 40 46  1  0  0  0  0
 40117  1  0  0  0  0
 41118  1  0  0  0  0
 41119  1  0  0  0  0
 41120  1  0  0  0  0
 42121  1  0  0  0  0
 42122  1  0  0  0  0
 42123  1  0  0  0  0
 43124  1  0  0  0  0
 44125  1  0  0  0  0
 44126  1  0  0  0  0
 44127  1  0  0  0  0
 45 48  1  0  0  0  0
 45 49  1  0  0  0  0
 45128  1  1  0  0  0
 46129  1  0  0  0  0
 47 48  1  0  0  0  0
 47 50  1  0  0  0  0
 47130  1  1  0  0  0
 48131  1  0  0  0  0
 48132  1  0  0  0  0
 49133  1  0  0  0  0
 49134  1  0  0  0  0
 49135  1  0  0  0  0
 50 51  1  0  0  0  0
 50 52  1  0  0  0  0
 51 53  1  0  0  0  0
 51136  1  0  0  0  0
 51137  1  0  0  0  0
 52138  1  0  0  0  0
 52139  1  0  0  0  0
 52140  1  0  0  0  0
 53 54  2  0  0  0  0
 53 55  1  0  0  0  0
 54 56  1  0  0  0  0
 54141  1  0  0  0  0
 55 57  2  0  0  0  0
 55142  1  0  0  0  0
 56 58  2  0  0  0  0
 56143  1  0  0  0  0
 57 58  1  0  0  0  0
 57144  1  0  0  0  0
 58 59  1  0  0  0  0
 59 60  1  0  0  0  0
 59 61  2  0  0  0  0
 60 62  2  0  0  0  0
 61 63  1  0  0  0  0
 61145  1  0  0  0  0
 62 63  1  0  0  0  0
 63 64  1  0  0  0  0
 64 65  1  0  0  0  0
 64146  1  0  0  0  0
 64147  1  0  0  0  0
 65 66  1  0  0  0  0
 65148  1  0  0  0  0
 65149  1  0  0  0  0
 66 67  1  0  0  0  0
 66150  1  0  0  0  0
 66151  1  0  0  0  0
 67 68  1  0  0  0  0
 67152  1  0  0  0  0
 67153  1  0  0  0  0
 68 69  1  0  0  0  0
 68154  1  0  0  0  0
 68155  1  0  0  0  0
 69 70  2  0  0  0  0
 69 71  1  0  0  0  0
 71 72  1  0  0  0  0
 71156  1  0  0  0  0
 72157  1  0  0  0  0
M  END
>  <Molecule Name>
2337386

>  <MolRegNo>
2337386

>  <m>
=

>  <Value>
1180

>  <Unit>
nM

>  <Type>
IC50

>  <pValue>
5.93

>  <Ligand Efficiency>
0

>  <Binding Efficiency>
5.81

>  <Surface Efficiency>
0

>  <Assay Index>
977532

>  <Assay Category>


>  <Assay Organism>
Homo sapiens

>  <Target ID>
10869

>  <Target Name>
Histone deacetylase 8

>  <Target Organism>
Homo sapiens

>  <Target Description>
Target is a single protein chain

>  <Sequence Accession>
Q9BY41

>  <Reference>
Bioorg. Med. Chem. 23 (24), 7543-7564 (2015)

>  <Pubmed ID>
26585275

>  <DOI>
10.1016/j.bmc.2015.10.045

$$$$
2337442
 OpenBabel03252423453D

160164  0  0  0  0  0  0  0  0999 V2000
    0.3327   -0.4831    0.0863 O   0  0  0  0  0  0  0  0  0  0  0  0
    1.5007   -0.2892   -0.2260 C   0  0  0  0  0  0  0  0  0  0  0  0
    2.3407   -1.2616   -0.6734 O   0  0  0  0  0  0  0  0  0  0  0  0
    2.1931    1.0564   -0.1614 C   0  0  2  0  0  0  0  0  0  0  0  0
    1.7409   -2.5323   -1.0192 C   0  0  2  0  0  0  0  0  0  0  0  0
    2.3012    1.4613    1.3675 C   0  0  2  0  0  0  0  0  0  0  0  0
    1.5026    1.9723   -1.1829 C   0  0  0  0  0  0  0  0  0  0  0  0
    2.5689   -3.7412   -0.4233 C   0  0  2  0  0  0  0  0  0  0  0  0
    1.6404   -2.5414   -2.5597 C   0  0  0  0  0  0  0  0  0  0  0  0
    1.7283    2.7678    1.5101 O   0  0  0  0  0  0  0  0  0  0  0  0
    3.9386    1.2421    1.9710 C   0  0  1  0  0  0  0  0  0  0  0  0
    1.9973   -4.9658   -0.9268 O   0  0  0  0  0  0  0  0  0  0  0  0
    2.5088   -3.8570    1.1763 C   0  0  2  0  0  0  0  0  0  0  0  0
    3.9998   -3.6918   -0.9939 C   0  0  0  0  0  0  0  0  0  0  0  0
    0.8006   -1.3969   -3.1139 C   0  0  0  0  0  0  0  0  0  0  0  0
    0.3121    3.0517    1.4220 C   0  0  2  0  0  0  0  0  0  0  0  0
    4.3394    1.1548    3.6447 C   0  0  2  0  0  0  0  0  0  0  0  0
    4.3571   -0.0528    1.2749 C   0  0  0  0  0  0  0  0  0  0  0  0
    2.1457   -2.6105    1.7676 O   0  0  0  0  0  0  0  0  0  0  0  0
    3.8203   -4.3320    1.8404 C   0  0  1  0  0  0  0  0  0  0  0  0
   -0.0431    4.4100    1.6492 O   0  0  0  0  0  0  0  0  0  0  0  0
   -0.6525    2.0832    2.0681 C   0  0  0  0  0  0  0  0  0  0  0  0
    5.0326    2.3328    4.3277 O   0  0  0  0  0  0  0  0  0  0  0  0
    4.8802   -0.1917    4.2910 C   0  0  1  0  0  0  0  0  0  0  0  0
    4.0041   -3.8814    3.2858 C   0  0  0  0  0  0  0  0  0  0  0  0
    4.1335   -5.8212    1.8096 C   0  0  0  0  0  0  0  0  0  0  0  0
   -0.6995    4.8446    2.8356 C   0  0  2  0  0  0  0  0  0  0  0  0
   -1.0086    2.3744    3.5345 C   0  0  2  0  0  0  0  0  0  0  0  0
    6.4376    2.7109    4.4946 C   0  0  2  0  0  0  0  0  0  0  0  0
    4.8093   -0.0869    5.7433 O   0  0  0  0  0  0  0  0  0  0  0  0
    4.1868   -1.5225    3.9294 C   0  0  0  0  0  0  0  0  0  0  0  0
    6.3494   -0.3056    3.9059 C   0  0  0  0  0  0  0  0  0  0  0  0
    3.3351   -4.3704    4.2004 O   0  0  0  0  0  0  0  0  0  0  0  0
    5.0309   -2.7832    3.5763 C   0  0  2  0  0  0  0  0  0  0  0  0
   -1.5949    3.8119    3.5631 C   0  0  1  0  0  0  0  0  0  0  0  0
   -1.5784    6.0245    2.3688 C   0  0  0  0  0  0  0  0  0  0  0  0
    0.1406    2.1647    4.3663 O   0  0  0  0  0  0  0  0  0  0  0  0
   -2.0199    1.2672    3.8846 C   0  0  0  0  0  0  0  0  0  0  0  0
    7.3984    1.8450    5.1468 O   0  0  0  0  0  0  0  0  0  0  0  0
    6.7820    4.1193    5.0948 C   0  0  2  0  0  0  0  0  0  0  0  0
    3.5686   -0.1105    6.4534 C   0  0  0  0  0  0  0  0  0  0  0  0
    6.1438   -2.7859    2.5065 C   0  0  0  0  0  0  0  0  0  0  0  0
   -1.8937    4.3107    4.8740 O   0  0  0  0  0  0  0  0  0  0  0  0
   -0.0491    2.2712    5.7771 C   0  0  0  0  0  0  0  0  0  0  0  0
    7.6831    1.8003    6.5319 C   0  0  1  0  0  0  0  0  0  0  0  0
    8.1726    4.3994    4.6808 O   0  0  0  0  0  0  0  0  0  0  0  0
    6.8176    4.2301    6.6528 C   0  0  2  0  0  0  0  0  0  0  0  0
    7.6752    3.1173    7.2802 C   0  0  0  0  0  0  0  0  0  0  0  0
    6.9516    0.7042    7.2782 C   0  0  0  0  0  0  0  0  0  0  0  0
    5.6036    4.5007    7.4615 N   0  0  0  0  0  0  0  0  0  0  0  0
    4.3447    3.8576    7.0918 C   0  0  0  0  0  0  0  0  0  0  0  0
    5.4363    5.9302    7.7031 C   0  0  0  0  0  0  0  0  0  0  0  0
    3.5601    4.4063    5.9535 C   0  0  0  0  0  0  0  0  0  0  0  0
    2.8456    3.5231    5.2148 C   0  0  0  0  0  0  0  0  0  0  0  0
    3.4676    5.7335    5.4615 C   0  0  0  0  0  0  0  0  0  0  0  0
    2.5846    3.7449    3.8656 C   0  0  0  0  0  0  0  0  0  0  0  0
    3.1680    5.9778    4.1076 C   0  0  0  0  0  0  0  0  0  0  0  0
    2.9195    4.9478    3.2390 C   0  0  0  0  0  0  0  0  0  0  0  0
    2.9448    5.1799    1.8163 C   0  0  0  0  0  0  0  0  0  0  0  0
    2.1635    6.1201    1.1871 N   0  0  0  0  0  0  0  0  0  0  0  0
    3.8199    4.6437    0.8965 C   0  0  0  0  0  0  0  0  0  0  0  0
    2.4492    6.0959   -0.1081 N   0  0  0  0  0  0  0  0  0  0  0  0
    3.4576    5.2272   -0.2782 N   0  0  0  0  0  0  0  0  0  0  0  0
    4.1399    5.1781   -1.5572 C   0  0  0  0  0  0  0  0  0  0  0  0
    4.8919    6.4899   -1.7773 C   0  0  0  0  0  0  0  0  0  0  0  0
    5.6624    6.5690   -3.0870 C   0  0  0  0  0  0  0  0  0  0  0  0
    4.7664    6.4606   -4.3216 C   0  0  0  0  0  0  0  0  0  0  0  0
    5.5309    6.6987   -5.6231 C   0  0  0  0  0  0  0  0  0  0  0  0
    6.6389    5.6754   -5.8552 C   0  0  0  0  0  0  0  0  0  0  0  0
    7.3821    5.9332   -7.1434 C   0  0  0  0  0  0  0  0  0  0  0  0
    7.1054    6.8179   -7.9481 O   0  0  0  0  0  0  0  0  0  0  0  0
    8.4361    5.0722   -7.3362 N   0  0  0  0  0  0  0  0  0  0  0  0
    9.1115    5.2038   -8.5700 O   0  0  0  0  0  0  0  0  0  0  0  0
    3.1900    0.9874   -0.5925 H   0  0  0  0  0  0  0  0  0  0  0  0
    0.7189   -2.6230   -0.6315 H   0  0  0  0  0  0  0  0  0  0  0  0
    1.7304    0.7712    1.9969 H   0  0  0  0  0  0  0  0  0  0  0  0
    0.4115    1.9003   -1.1507 H   0  0  0  0  0  0  0  0  0  0  0  0
    1.7646    1.6681   -2.2028 H   0  0  0  0  0  0  0  0  0  0  0  0
    1.8199    3.0141   -1.0852 H   0  0  0  0  0  0  0  0  0  0  0  0
    1.2190   -3.4916   -2.9014 H   0  0  0  0  0  0  0  0  0  0  0  0
    2.6358   -2.4338   -3.0098 H   0  0  0  0  0  0  0  0  0  0  0  0
    4.5462    2.0513    1.5744 H   0  0  0  0  0  0  0  0  0  0  0  0
    1.0832   -5.0338   -0.5958 H   0  0  0  0  0  0  0  0  0  0  0  0
    1.7231   -4.5698    1.4575 H   0  0  0  0  0  0  0  0  0  0  0  0
    3.9985   -3.7475   -2.0880 H   0  0  0  0  0  0  0  0  0  0  0  0
    4.5890   -4.5662   -0.7018 H   0  0  0  0  0  0  0  0  0  0  0  0
    4.5307   -2.7826   -0.6974 H   0  0  0  0  0  0  0  0  0  0  0  0
   -0.1803   -1.3442   -2.6254 H   0  0  0  0  0  0  0  0  0  0  0  0
    0.6394   -1.5310   -4.1890 H   0  0  0  0  0  0  0  0  0  0  0  0
    1.3064   -0.4342   -2.9877 H   0  0  0  0  0  0  0  0  0  0  0  0
    0.0851    3.0057    0.3664 H   0  0  0  0  0  0  0  0  0  0  0  0
    3.3324    1.2064    4.0592 H   0  0  0  0  0  0  0  0  0  0  0  0
    3.5792   -0.8047    1.3786 H   0  0  0  0  0  0  0  0  0  0  0  0
    5.2605   -0.4643    1.6489 H   0  0  0  0  0  0  0  0  0  0  0  0
    4.5793    0.0585    0.2162 H   0  0  0  0  0  0  0  0  0  0  0  0
    1.3181   -2.2759    1.3797 H   0  0  0  0  0  0  0  0  0  0  0  0
    4.6101   -3.8700    1.2712 H   0  0  0  0  0  0  0  0  0  0  0  0
   -0.3161    1.0599    1.9470 H   0  0  0  0  0  0  0  0  0  0  0  0
   -1.5875    2.1817    1.4923 H   0  0  0  0  0  0  0  0  0  0  0  0
    3.4800   -6.3867    2.4796 H   0  0  0  0  0  0  0  0  0  0  0  0
    5.1626   -5.9785    2.1646 H   0  0  0  0  0  0  0  0  0  0  0  0
    4.0649   -6.2359    0.8036 H   0  0  0  0  0  0  0  0  0  0  0  0
    0.0405    5.2594    3.5284 H   0  0  0  0  0  0  0  0  0  0  0  0
    6.7980    2.7644    3.4578 H   0  0  0  0  0  0  0  0  0  0  0  0
    3.3514   -1.3382    3.2618 H   0  0  0  0  0  0  0  0  0  0  0  0
    3.6526   -1.8860    4.8100 H   0  0  0  0  0  0  0  0  0  0  0  0
    6.8839    0.6044    3.8459 H   0  0  0  0  0  0  0  0  0  0  0  0
    6.5081   -0.5179    2.8637 H   0  0  0  0  0  0  0  0  0  0  0  0
    6.9131   -0.9826    4.5485 H   0  0  0  0  0  0  0  0  0  0  0  0
    5.5417   -3.0872    4.5006 H   0  0  0  0  0  0  0  0  0  0  0  0
   -2.5602    3.7779    3.0439 H   0  0  0  0  0  0  0  0  0  0  0  0
   -2.2717    5.6911    1.5842 H   0  0  0  0  0  0  0  0  0  0  0  0
   -0.9709    6.8153    1.9132 H   0  0  0  0  0  0  0  0  0  0  0  0
   -2.1670    6.4620    3.1809 H   0  0  0  0  0  0  0  0  0  0  0  0
   -1.4826    0.3101    3.9579 H   0  0  0  0  0  0  0  0  0  0  0  0
   -2.7902    1.1573    3.1161 H   0  0  0  0  0  0  0  0  0  0  0  0
   -2.5185    1.4297    4.8402 H   0  0  0  0  0  0  0  0  0  0  0  0
    6.1909    4.9257    4.6611 H   0  0  0  0  0  0  0  0  0  0  0  0
    3.7994   -0.1565    7.5242 H   0  0  0  0  0  0  0  0  0  0  0  0
    2.9318   -0.9725    6.2491 H   0  0  0  0  0  0  0  0  0  0  0  0
    2.9761    0.7842    6.3074 H   0  0  0  0  0  0  0  0  0  0  0  0
    5.8187   -2.3723    1.5479 H   0  0  0  0  0  0  0  0  0  0  0  0
    6.4942   -3.8052    2.3208 H   0  0  0  0  0  0  0  0  0  0  0  0
    7.0642   -2.2759    2.7885 H   0  0  0  0  0  0  0  0  0  0  0  0
   -2.3130    3.6062    5.3907 H   0  0  0  0  0  0  0  0  0  0  0  0
    0.8297    1.8626    6.2795 H   0  0  0  0  0  0  0  0  0  0  0  0
   -0.8922    1.6784    6.1335 H   0  0  0  0  0  0  0  0  0  0  0  0
   -0.1436    3.3121    6.0938 H   0  0  0  0  0  0  0  0  0  0  0  0
    8.7278    1.4516    6.5545 H   0  0  0  0  0  0  0  0  0  0  0  0
    8.6526    3.5483    4.7736 H   0  0  0  0  0  0  0  0  0  0  0  0
    7.4613    5.1040    6.8530 H   0  0  0  0  0  0  0  0  0  0  0  0
    8.7184    3.4740    7.2889 H   0  0  0  0  0  0  0  0  0  0  0  0
    7.4558    2.9661    8.3465 H   0  0  0  0  0  0  0  0  0  0  0  0
    5.9393    1.0196    7.5300 H   0  0  0  0  0  0  0  0  0  0  0  0
    7.4581    0.4563    8.2160 H   0  0  0  0  0  0  0  0  0  0  0  0
    6.9226   -0.2147    6.6888 H   0  0  0  0  0  0  0  0  0  0  0  0
    3.6877    3.8047    7.9655 H   0  0  0  0  0  0  0  0  0  0  0  0
    4.5870    2.8009    6.8911 H   0  0  0  0  0  0  0  0  0  0  0  0
    4.4501    6.1425    8.1320 H   0  0  0  0  0  0  0  0  0  0  0  0
    5.5583    6.4960    6.7694 H   0  0  0  0  0  0  0  0  0  0  0  0
    6.1756    6.3081    8.3994 H   0  0  0  0  0  0  0  0  0  0  0  0
    2.7078    2.5101    5.5687 H   0  0  0  0  0  0  0  0  0  0  0  0
    3.6834    6.5767    6.0697 H   0  0  0  0  0  0  0  0  0  0  0  0
    2.2031    2.9005    3.3715 H   0  0  0  0  0  0  0  0  0  0  0  0
    3.1909    7.0037    3.7301 H   0  0  0  0  0  0  0  0  0  0  0  0
    4.6317    3.9417    0.9544 H   0  0  0  0  0  0  0  0  0  0  0  0
    3.3777    5.0002   -2.3251 H   0  0  0  0  0  0  0  0  0  0  0  0
    4.8245    4.3210   -1.5586 H   0  0  0  0  0  0  0  0  0  0  0  0
    5.6004    6.6315   -0.9509 H   0  0  0  0  0  0  0  0  0  0  0  0
    4.1918    7.3327   -1.7274 H   0  0  0  0  0  0  0  0  0  0  0  0
    6.4259    5.7851   -3.0908 H   0  0  0  0  0  0  0  0  0  0  0  0
    6.1898    7.5313   -3.1113 H   0  0  0  0  0  0  0  0  0  0  0  0
    3.9590    7.1999   -4.2526 H   0  0  0  0  0  0  0  0  0  0  0  0
    4.2930    5.4734   -4.3629 H   0  0  0  0  0  0  0  0  0  0  0  0
    5.9524    7.7117   -5.6217 H   0  0  0  0  0  0  0  0  0  0  0  0
    4.8199    6.6604   -6.4580 H   0  0  0  0  0  0  0  0  0  0  0  0
    6.2145    4.6650   -5.8912 H   0  0  0  0  0  0  0  0  0  0  0  0
    7.3750    5.7101   -5.0450 H   0  0  0  0  0  0  0  0  0  0  0  0
    8.5228    4.1807   -6.8601 H   0  0  0  0  0  0  0  0  0  0  0  0
    8.6380    5.9583   -8.9868 H   0  0  0  0  0  0  0  0  0  0  0  0
  1  2  2  0  0  0  0
  2  3  1  0  0  0  0
  2  4  1  0  0  0  0
  3  5  1  0  0  0  0
  4  6  1  1  0  0  0
  4  7  1  0  0  0  0
  4 74  1  0  0  0  0
  5  8  1  1  0  0  0
  5  9  1  0  0  0  0
  5 75  1  0  0  0  0
  6 10  1  0  0  0  0
  6 11  1  1  0  0  0
  6 76  1  0  0  0  0
  7 77  1  0  0  0  0
  7 78  1  0  0  0  0
  7 79  1  0  0  0  0
  8 12  1  0  0  0  0
  8 13  1  1  0  0  0
  8 14  1  0  0  0  0
  9 15  1  0  0  0  0
  9 80  1  0  0  0  0
  9 81  1  0  0  0  0
 11 17  1  1  0  0  0
 11 18  1  0  0  0  0
 11 82  1  0  0  0  0
 12 83  1  0  0  0  0
 13 20  1  1  0  0  0
 13 19  1  0  0  0  0
 13 84  1  0  0  0  0
 14 85  1  0  0  0  0
 14 86  1  0  0  0  0
 14 87  1  0  0  0  0
 15 88  1  0  0  0  0
 15 89  1  0  0  0  0
 15 90  1  0  0  0  0
 16 10  1  0  0  0  0
 16 21  1  0  0  0  0
 16 22  1  0  0  0  0
 16 91  1  6  0  0  0
 17 23  1  0  0  0  0
 17 24  1  1  0  0  0
 17 92  1  0  0  0  0
 18 93  1  0  0  0  0
 18 94  1  0  0  0  0
 18 95  1  0  0  0  0
 19 96  1  0  0  0  0
 20 25  1  0  0  0  0
 20 26  1  0  0  0  0
 20 97  1  6  0  0  0
 21 27  1  0  0  0  0
 22 28  1  0  0  0  0
 22 98  1  0  0  0  0
 22 99  1  0  0  0  0
 24 30  1  1  0  0  0
 24 31  1  0  0  0  0
 24 32  1  0  0  0  0
 25 33  2  0  0  0  0
 25 34  1  0  0  0  0
 26100  1  0  0  0  0
 26101  1  0  0  0  0
 26102  1  0  0  0  0
 27 35  1  1  0  0  0
 27 36  1  0  0  0  0
 27103  1  0  0  0  0
 28 37  1  0  0  0  0
 28 38  1  0  0  0  0
 28 35  1  1  0  0  0
 29 23  1  0  0  0  0
 29 39  1  0  0  0  0
 29 40  1  1  0  0  0
 29104  1  0  0  0  0
 30 41  1  0  0  0  0
 31 34  1  0  0  0  0
 31105  1  0  0  0  0
 31106  1  0  0  0  0
 32107  1  0  0  0  0
 32108  1  0  0  0  0
 32109  1  0  0  0  0
 34 42  1  0  0  0  0
 34110  1  1  0  0  0
 35 43  1  0  0  0  0
 35111  1  6  0  0  0
 36112  1  0  0  0  0
 36113  1  0  0  0  0
 36114  1  0  0  0  0
 37 44  1  0  0  0  0
 38115  1  0  0  0  0
 38116  1  0  0  0  0
 38117  1  0  0  0  0
 39 45  1  0  0  0  0
 40 47  1  1  0  0  0
 40 46  1  0  0  0  0
 40118  1  0  0  0  0
 41119  1  0  0  0  0
 41120  1  0  0  0  0
 41121  1  0  0  0  0
 42122  1  0  0  0  0
 42123  1  0  0  0  0
 42124  1  0  0  0  0
 43125  1  0  0  0  0
 44126  1  0  0  0  0
 44127  1  0  0  0  0
 44128  1  0  0  0  0
 45 48  1  0  0  0  0
 45 49  1  0  0  0  0
 45129  1  1  0  0  0
 46130  1  0  0  0  0
 47 48  1  0  0  0  0
 47 50  1  0  0  0  0
 47131  1  1  0  0  0
 48132  1  0  0  0  0
 48133  1  0  0  0  0
 49134  1  0  0  0  0
 49135  1  0  0  0  0
 49136  1  0  0  0  0
 50 51  1  0  0  0  0
 50 52  1  0  0  0  0
 51 53  1  0  0  0  0
 51137  1  0  0  0  0
 51138  1  0  0  0  0
 52139  1  0  0  0  0
 52140  1  0  0  0  0
 52141  1  0  0  0  0
 53 54  2  0  0  0  0
 53 55  1  0  0  0  0
 54 56  1  0  0  0  0
 54142  1  0  0  0  0
 55 57  2  0  0  0  0
 55143  1  0  0  0  0
 56 58  2  0  0  0  0
 56144  1  0  0  0  0
 57 58  1  0  0  0  0
 57145  1  0  0  0  0
 58 59  1  0  0  0  0
 59 60  1  0  0  0  0
 59 61  2  0  0  0  0
 60 62  2  0  0  0  0
 61 63  1  0  0  0  0
 61146  1  0  0  0  0
 62 63  1  0  0  0  0
 63 64  1  0  0  0  0
 64 65  1  0  0  0  0
 64147  1  0  0  0  0
 64148  1  0  0  0  0
 65 66  1  0  0  0  0
 65149  1  0  0  0  0
 65150  1  0  0  0  0
 66 67  1  0  0  0  0
 66151  1  0  0  0  0
 66152  1  0  0  0  0
 67 68  1  0  0  0  0
 67153  1  0  0  0  0
 67154  1  0  0  0  0
 68 69  1  0  0  0  0
 68155  1  0  0  0  0
 68156  1  0  0  0  0
 69 70  1  0  0  0  0
 69157  1  0  0  0  0
 69158  1  0  0  0  0
 70 71  2  0  0  0  0
 70 72  1  0  0  0  0
 72 73  1  0  0  0  0
 72159  1  0  0  0  0
 73160  1  0  0  0  0
M  END
>  <Molecule Name>
2337442

>  <MolRegNo>
2337442

>  <m>
=

>  <Value>
713

>  <Unit>
nM

>  <Type>
IC50

>  <pValue>
6.15

>  <Ligand Efficiency>
0

>  <Binding Efficiency>
5.94

>  <Surface Efficiency>
0

>  <Assay Index>
977532

>  <Assay Category>


>  <Assay Organism>
Homo sapiens

>  <Target ID>
10869

>  <Target Name>
Histone deacetylase 8

>  <Target Organism>
Homo sapiens

>  <Target Description>
Target is a single protein chain

>  <Sequence Accession>
Q9BY41

>  <Reference>
Bioorg. Med. Chem. 23 (24), 7543-7564 (2015)

>  <Pubmed ID>
26585275

>  <DOI>
10.1016/j.bmc.2015.10.045

$$$$
2337360
 OpenBabel03252423453D

156160  0  0  0  0  0  0  0  0999 V2000
    0.5871   -0.3785    0.0753 O   0  0  0  0  0  0  0  0  0  0  0  0
    1.8038   -0.2732   -0.0295 C   0  0  0  0  0  0  0  0  0  0  0  0
    2.6028   -1.3020   -0.4268 O   0  0  0  0  0  0  0  0  0  0  0  0
    2.5818    1.0052    0.2576 C   0  0  2  0  0  0  0  0  0  0  0  0
    1.9297   -2.5392   -0.7919 C   0  0  2  0  0  0  0  0  0  0  0  0
    2.7146    1.1727    1.8679 C   0  0  2  0  0  0  0  0  0  0  0  0
    1.9545    2.0587   -0.6844 C   0  0  0  0  0  0  0  0  0  0  0  0
    2.7334   -3.7769   -0.2126 C   0  0  2  0  0  0  0  0  0  0  0  0
    1.7773   -2.5674   -2.3273 C   0  0  0  0  0  0  0  0  0  0  0  0
    2.0026    2.2847    2.4448 O   0  0  0  0  0  0  0  0  0  0  0  0
    4.2430    1.1200    2.4370 C   0  0  1  0  0  0  0  0  0  0  0  0
    2.1112   -4.9827   -0.6770 O   0  0  0  0  0  0  0  0  0  0  0  0
    2.7339   -3.8364    1.3844 C   0  0  2  0  0  0  0  0  0  0  0  0
    4.1408   -3.7531   -0.8368 C   0  0  0  0  0  0  0  0  0  0  0  0
    0.9583   -1.4090   -2.8965 C   0  0  0  0  0  0  0  0  0  0  0  0
    0.6193    2.3630    2.0996 C   0  0  2  0  0  0  0  0  0  0  0  0
    4.4670    1.0564    4.0799 C   0  0  2  0  0  0  0  0  0  0  0  0
    4.9286   -0.0350    1.7016 C   0  0  0  0  0  0  0  0  0  0  0  0
    2.4485   -2.5556    1.9543 O   0  0  0  0  0  0  0  0  0  0  0  0
    4.0548   -4.3542    2.0027 C   0  0  1  0  0  0  0  0  0  0  0  0
   -0.0018    3.5786    2.4047 O   0  0  0  0  0  0  0  0  0  0  0  0
   -0.2763    1.2027    2.4339 C   0  0  0  0  0  0  0  0  0  0  0  0
    5.3519    2.1039    4.5956 O   0  0  0  0  0  0  0  0  0  0  0  0
    5.1500   -0.3112    4.7551 C   0  0  1  0  0  0  0  0  0  0  0  0
    4.2535   -3.9681    3.4719 C   0  0  0  0  0  0  0  0  0  0  0  0
    4.2860   -5.8586    1.8814 C   0  0  0  0  0  0  0  0  0  0  0  0
   -0.5461    3.7595    3.6983 C   0  0  2  0  0  0  0  0  0  0  0  0
   -0.7593    1.1315    3.8734 C   0  0  2  0  0  0  0  0  0  0  0  0
    5.0334    3.4831    4.5421 C   0  0  2  0  0  0  0  0  0  0  0  0
    4.8704   -0.2436    6.2038 O   0  0  0  0  0  0  0  0  0  0  0  0
    4.4672   -1.6266    4.2825 C   0  0  0  0  0  0  0  0  0  0  0  0
    6.6892   -0.2291    4.6387 C   0  0  0  0  0  0  0  0  0  0  0  0
    3.5835   -4.5076    4.3589 O   0  0  0  0  0  0  0  0  0  0  0  0
    5.2831   -2.8726    3.8406 C   0  0  2  0  0  0  0  0  0  0  0  0
   -1.3985    2.5286    4.3206 C   0  0  1  0  0  0  0  0  0  0  0  0
   -1.2905    5.0846    3.4383 C   0  0  0  0  0  0  0  0  0  0  0  0
    0.3308    0.9410    4.8123 O   0  0  0  0  0  0  0  0  0  0  0  0
   -1.6678   -0.1138    3.9117 C   0  0  0  0  0  0  0  0  0  0  0  0
    6.1257    4.2854    5.0723 O   0  0  0  0  0  0  0  0  0  0  0  0
    3.7144    4.0449    5.1237 C   0  0  2  0  0  0  0  0  0  0  0  0
    5.4692   -1.2448    7.0301 C   0  0  0  0  0  0  0  0  0  0  0  0
    6.3720   -2.7303    2.7709 C   0  0  0  0  0  0  0  0  0  0  0  0
   -1.2203    2.6431    5.7662 O   0  0  0  0  0  0  0  0  0  0  0  0
   -2.9368    2.7599    4.0970 C   0  0  0  0  0  0  0  0  0  0  0  0
    1.0714   -0.2677    4.8605 C   0  0  0  0  0  0  0  0  0  0  0  0
    6.1918    4.4655    6.4992 C   0  0  1  0  0  0  0  0  0  0  0  0
    3.5755    5.4202    4.6373 O   0  0  0  0  0  0  0  0  0  0  0  0
    3.6737    4.0881    6.6888 C   0  0  2  0  0  0  0  0  0  0  0  0
   -4.0939    2.0212    4.7534 N   0  0  0  0  0  0  0  0  0  0  0  0
    4.8797    4.9343    7.1301 C   0  0  0  0  0  0  0  0  0  0  0  0
    6.8071    3.2753    7.2208 C   0  0  0  0  0  0  0  0  0  0  0  0
    3.5878    2.7506    7.3231 N   0  0  0  0  0  0  0  0  0  0  0  0
   -3.9313    1.9170    6.2348 C   0  0  0  0  0  0  0  0  0  0  0  0
   -5.2770    2.8585    4.4232 C   0  0  0  0  0  0  0  0  0  0  0  0
    2.2965    2.1211    7.0517 C   0  0  0  0  0  0  0  0  0  0  0  0
    3.8231    2.6870    8.7654 C   0  0  0  0  0  0  0  0  0  0  0  0
   -5.0939    1.4299    7.1220 C   0  0  0  0  0  0  0  0  0  0  0  0
   -6.3033    0.8828    6.6831 C   0  0  0  0  0  0  0  0  0  0  0  0
   -4.9459    1.6036    8.5082 C   0  0  0  0  0  0  0  0  0  0  0  0
   -7.4308    0.7829    7.5462 C   0  0  0  0  0  0  0  0  0  0  0  0
   -6.0355    1.4480    9.3703 C   0  0  0  0  0  0  0  0  0  0  0  0
   -7.3082    1.1580    8.8850 C   0  0  0  0  0  0  0  0  0  0  0  0
   -8.4584    1.2816    9.7537 C   0  0  0  0  0  0  0  0  0  0  0  0
   -9.6529    0.6164    9.6456 N   0  0  0  0  0  0  0  0  0  0  0  0
   -8.5241    2.1346   10.8447 C   0  0  0  0  0  0  0  0  0  0  0  0
  -10.4071    0.9393   10.6956 N   0  0  0  0  0  0  0  0  0  0  0  0
   -9.7105    1.8023   11.4421 N   0  0  0  0  0  0  0  0  0  0  0  0
  -10.0202    1.9999   12.8419 C   0  0  0  0  0  0  0  0  0  0  0  0
  -10.5290    3.3804   13.1387 C   0  0  0  0  0  0  0  0  0  0  0  0
   -9.9109    4.4109   12.8647 O   0  0  0  0  0  0  0  0  0  0  0  0
  -11.7278    3.4172   13.8116 N   0  0  0  0  0  0  0  0  0  0  0  0
  -12.1531    4.6935   14.2443 O   0  0  0  0  0  0  0  0  0  0  0  0
    3.5738    0.8950   -0.1753 H   0  0  0  0  0  0  0  0  0  0  0  0
    0.9152   -2.5947   -0.3563 H   0  0  0  0  0  0  0  0  0  0  0  0
    2.2708    0.2743    2.3009 H   0  0  0  0  0  0  0  0  0  0  0  0
    0.8642    1.9954   -0.7643 H   0  0  0  0  0  0  0  0  0  0  0  0
    2.2750    1.8564   -1.7157 H   0  0  0  0  0  0  0  0  0  0  0  0
    2.2519    3.0811   -0.4394 H   0  0  0  0  0  0  0  0  0  0  0  0
    1.3161   -3.5042   -2.6422 H   0  0  0  0  0  0  0  0  0  0  0  0
    2.7596   -2.4939   -2.8075 H   0  0  0  0  0  0  0  0  0  0  0  0
    4.7229    2.0445    2.1007 H   0  0  0  0  0  0  0  0  0  0  0  0
    1.1953   -5.0195   -0.3474 H   0  0  0  0  0  0  0  0  0  0  0  0
    1.9243   -4.5015    1.7158 H   0  0  0  0  0  0  0  0  0  0  0  0
    4.1019   -3.8192   -1.9265 H   0  0  0  0  0  0  0  0  0  0  0  0
    4.7274   -4.6306   -0.5564 H   0  0  0  0  0  0  0  0  0  0  0  0
    4.6951   -2.8492   -0.5652 H   0  0  0  0  0  0  0  0  0  0  0  0
   -0.0289   -1.3487   -2.4292 H   0  0  0  0  0  0  0  0  0  0  0  0
    0.8153   -1.5484   -3.9739 H   0  0  0  0  0  0  0  0  0  0  0  0
    1.4712   -0.4511   -2.7635 H   0  0  0  0  0  0  0  0  0  0  0  0
    0.5866    2.4303    1.0308 H   0  0  0  0  0  0  0  0  0  0  0  0
    3.5087    1.2223    4.5647 H   0  0  0  0  0  0  0  0  0  0  0  0
    4.3413   -0.9513    1.7627 H   0  0  0  0  0  0  0  0  0  0  0  0
    5.9336   -0.2026    2.0603 H   0  0  0  0  0  0  0  0  0  0  0  0
    5.0615    0.1349    0.6347 H   0  0  0  0  0  0  0  0  0  0  0  0
    1.5791   -2.2564    1.6339 H   0  0  0  0  0  0  0  0  0  0  0  0
    4.8574   -3.8903    1.4477 H   0  0  0  0  0  0  0  0  0  0  0  0
    0.2181    0.2644    2.1925 H   0  0  0  0  0  0  0  0  0  0  0  0
   -1.1618    1.2836    1.7861 H   0  0  0  0  0  0  0  0  0  0  0  0
    3.6248   -6.4276    2.5415 H   0  0  0  0  0  0  0  0  0  0  0  0
    5.3176   -6.0909    2.1762 H   0  0  0  0  0  0  0  0  0  0  0  0
    4.1461   -6.2206    0.8607 H   0  0  0  0  0  0  0  0  0  0  0  0
    0.2879    3.9816    4.3817 H   0  0  0  0  0  0  0  0  0  0  0  0
    5.0470    3.7410    3.4781 H   0  0  0  0  0  0  0  0  0  0  0  0
    3.7051   -1.3915    3.5468 H   0  0  0  0  0  0  0  0  0  0  0  0
    3.8268   -1.9815    5.1054 H   0  0  0  0  0  0  0  0  0  0  0  0
    7.1020    0.5099    5.3356 H   0  0  0  0  0  0  0  0  0  0  0  0
    7.0362    0.0543    3.6461 H   0  0  0  0  0  0  0  0  0  0  0  0
    7.1732   -1.1701    4.9179 H   0  0  0  0  0  0  0  0  0  0  0  0
    5.8049   -3.2639    4.7244 H   0  0  0  0  0  0  0  0  0  0  0  0
   -2.0219    4.9651    2.6230 H   0  0  0  0  0  0  0  0  0  0  0  0
   -0.5847    5.8355    3.0483 H   0  0  0  0  0  0  0  0  0  0  0  0
   -1.7785    5.5077    4.3150 H   0  0  0  0  0  0  0  0  0  0  0  0
   -1.1361   -0.9716    3.4495 H   0  0  0  0  0  0  0  0  0  0  0  0
   -2.5647   -0.0047    3.3033 H   0  0  0  0  0  0  0  0  0  0  0  0
   -1.9017   -0.4348    4.9239 H   0  0  0  0  0  0  0  0  0  0  0  0
    2.8540    3.5146    4.7151 H   0  0  0  0  0  0  0  0  0  0  0  0
    5.1453   -1.0880    8.0620 H   0  0  0  0  0  0  0  0  0  0  0  0
    6.5648   -1.1916    7.0219 H   0  0  0  0  0  0  0  0  0  0  0  0
    5.1578   -2.2570    6.7476 H   0  0  0  0  0  0  0  0  0  0  0  0
    6.0009   -2.3574    1.8174 H   0  0  0  0  0  0  0  0  0  0  0  0
    6.8262   -3.7093    2.5641 H   0  0  0  0  0  0  0  0  0  0  0  0
    7.2010   -2.0842    3.0551 H   0  0  0  0  0  0  0  0  0  0  0  0
   -0.6390    1.8885    5.9986 H   0  0  0  0  0  0  0  0  0  0  0  0
   -3.1117    2.7317    3.0145 H   0  0  0  0  0  0  0  0  0  0  0  0
   -3.0925    3.7937    4.4264 H   0  0  0  0  0  0  0  0  0  0  0  0
    1.3242   -0.4592    5.9068 H   0  0  0  0  0  0  0  0  0  0  0  0
    2.0041   -0.1412    4.3286 H   0  0  0  0  0  0  0  0  0  0  0  0
    0.5710   -1.1524    4.4713 H   0  0  0  0  0  0  0  0  0  0  0  0
    6.9032    5.2901    6.6410 H   0  0  0  0  0  0  0  0  0  0  0  0
    4.4902    5.7683    4.5870 H   0  0  0  0  0  0  0  0  0  0  0  0
    2.7841    4.6629    6.9886 H   0  0  0  0  0  0  0  0  0  0  0  0
    4.6994    5.9721    6.8115 H   0  0  0  0  0  0  0  0  0  0  0  0
    4.9586    5.0098    8.2221 H   0  0  0  0  0  0  0  0  0  0  0  0
    6.1896    2.3785    7.1495 H   0  0  0  0  0  0  0  0  0  0  0  0
    6.9613    3.5083    8.2815 H   0  0  0  0  0  0  0  0  0  0  0  0
    7.7780    3.0250    6.7809 H   0  0  0  0  0  0  0  0  0  0  0  0
   -3.6755    2.9204    6.6177 H   0  0  0  0  0  0  0  0  0  0  0  0
   -3.0956    1.2481    6.4504 H   0  0  0  0  0  0  0  0  0  0  0  0
   -5.3790    2.9455    3.3356 H   0  0  0  0  0  0  0  0  0  0  0  0
   -5.2006    3.8696    4.8443 H   0  0  0  0  0  0  0  0  0  0  0  0
   -6.2253    2.4460    4.7588 H   0  0  0  0  0  0  0  0  0  0  0  0
    2.2927    1.0879    7.4147 H   0  0  0  0  0  0  0  0  0  0  0  0
    2.1100    2.0704    5.9829 H   0  0  0  0  0  0  0  0  0  0  0  0
    1.4631    2.6585    7.5146 H   0  0  0  0  0  0  0  0  0  0  0  0
    3.7477    1.6464    9.1078 H   0  0  0  0  0  0  0  0  0  0  0  0
    3.1083    3.2868    9.3383 H   0  0  0  0  0  0  0  0  0  0  0  0
    4.8333    2.9929    9.0431 H   0  0  0  0  0  0  0  0  0  0  0  0
   -6.4481    0.6067    5.6406 H   0  0  0  0  0  0  0  0  0  0  0  0
   -3.9949    1.9328    8.9280 H   0  0  0  0  0  0  0  0  0  0  0  0
   -8.3831    0.4606    7.1394 H   0  0  0  0  0  0  0  0  0  0  0  0
   -5.8834    1.6515   10.4347 H   0  0  0  0  0  0  0  0  0  0  0  0
   -7.8372    2.8506   11.2580 H   0  0  0  0  0  0  0  0  0  0  0  0
   -9.1016    1.8379   13.4137 H   0  0  0  0  0  0  0  0  0  0  0  0
  -10.7427    1.2291   13.1407 H   0  0  0  0  0  0  0  0  0  0  0  0
  -12.1346    2.6216   14.2944 H   0  0  0  0  0  0  0  0  0  0  0  0
  -11.4571    5.2881   13.8867 H   0  0  0  0  0  0  0  0  0  0  0  0
  1  2  2  0  0  0  0
  2  3  1  0  0  0  0
  2  4  1  0  0  0  0
  3  5  1  0  0  0  0
  4  6  1  1  0  0  0
  4  7  1  0  0  0  0
  4 73  1  0  0  0  0
  5  8  1  1  0  0  0
  5  9  1  0  0  0  0
  5 74  1  0  0  0  0
  6 10  1  0  0  0  0
  6 11  1  1  0  0  0
  6 75  1  0  0  0  0
  7 76  1  0  0  0  0
  7 77  1  0  0  0  0
  7 78  1  0  0  0  0
  8 12  1  0  0  0  0
  8 13  1  1  0  0  0
  8 14  1  0  0  0  0
  9 15  1  0  0  0  0
  9 79  1  0  0  0  0
  9 80  1  0  0  0  0
 11 17  1  1  0  0  0
 11 18  1  0  0  0  0
 11 81  1  0  0  0  0
 12 82  1  0  0  0  0
 13 20  1  1  0  0  0
 13 19  1  0  0  0  0
 13 83  1  0  0  0  0
 14 84  1  0  0  0  0
 14 85  1  0  0  0  0
 14 86  1  0  0  0  0
 15 87  1  0  0  0  0
 15 88  1  0  0  0  0
 15 89  1  0  0  0  0
 16 10  1  0  0  0  0
 16 21  1  0  0  0  0
 16 22  1  0  0  0  0
 16 90  1  6  0  0  0
 17 23  1  0  0  0  0
 17 24  1  1  0  0  0
 17 91  1  0  0  0  0
 18 92  1  0  0  0  0
 18 93  1  0  0  0  0
 18 94  1  0  0  0  0
 19 95  1  0  0  0  0
 20 25  1  0  0  0  0
 20 26  1  0  0  0  0
 20 96  1  6  0  0  0
 21 27  1  0  0  0  0
 22 28  1  0  0  0  0
 22 97  1  0  0  0  0
 22 98  1  0  0  0  0
 24 30  1  1  0  0  0
 24 31  1  0  0  0  0
 24 32  1  0  0  0  0
 25 33  2  0  0  0  0
 25 34  1  0  0  0  0
 26 99  1  0  0  0  0
 26100  1  0  0  0  0
 26101  1  0  0  0  0
 27 35  1  1  0  0  0
 27 36  1  0  0  0  0
 27102  1  0  0  0  0
 28 37  1  0  0  0  0
 28 38  1  0  0  0  0
 28 35  1  1  0  0  0
 29 23  1  0  0  0  0
 29 39  1  0  0  0  0
 29 40  1  1  0  0  0
 29103  1  0  0  0  0
 30 41  1  0  0  0  0
 31 34  1  0  0  0  0
 31104  1  0  0  0  0
 31105  1  0  0  0  0
 32106  1  0  0  0  0
 32107  1  0  0  0  0
 32108  1  0  0  0  0
 34 42  1  0  0  0  0
 34109  1  1  0  0  0
 35 43  1  1  0  0  0
 35 44  1  0  0  0  0
 36110  1  0  0  0  0
 36111  1  0  0  0  0
 36112  1  0  0  0  0
 37 45  1  0  0  0  0
 38113  1  0  0  0  0
 38114  1  0  0  0  0
 38115  1  0  0  0  0
 39 46  1  0  0  0  0
 40 48  1  1  0  0  0
 40 47  1  0  0  0  0
 40116  1  0  0  0  0
 41117  1  0  0  0  0
 41118  1  0  0  0  0
 41119  1  0  0  0  0
 42120  1  0  0  0  0
 42121  1  0  0  0  0
 42122  1  0  0  0  0
 43123  1  0  0  0  0
 44 49  1  0  0  0  0
 44124  1  0  0  0  0
 44125  1  0  0  0  0
 45126  1  0  0  0  0
 45127  1  0  0  0  0
 45128  1  0  0  0  0
 46 50  1  0  0  0  0
 46 51  1  0  0  0  0
 46129  1  1  0  0  0
 47130  1  0  0  0  0
 48 50  1  0  0  0  0
 48 52  1  0  0  0  0
 48131  1  1  0  0  0
 49 53  1  0  0  0  0
 49 54  1  0  0  0  0
 50132  1  0  0  0  0
 50133  1  0  0  0  0
 51134  1  0  0  0  0
 51135  1  0  0  0  0
 51136  1  0  0  0  0
 52 55  1  0  0  0  0
 52 56  1  0  0  0  0
 53 57  1  0  0  0  0
 53137  1  0  0  0  0
 53138  1  0  0  0  0
 54139  1  0  0  0  0
 54140  1  0  0  0  0
 54141  1  0  0  0  0
 55142  1  0  0  0  0
 55143  1  0  0  0  0
 55144  1  0  0  0  0
 56145  1  0  0  0  0
 56146  1  0  0  0  0
 56147  1  0  0  0  0
 57 58  2  0  0  0  0
 57 59  1  0  0  0  0
 58 60  1  0  0  0  0
 58148  1  0  0  0  0
 59 61  2  0  0  0  0
 59149  1  0  0  0  0
 60 62  2  0  0  0  0
 60150  1  0  0  0  0
 61 62  1  0  0  0  0
 61151  1  0  0  0  0
 62 63  1  0  0  0  0
 63 64  1  0  0  0  0
 63 65  2  0  0  0  0
 64 66  2  0  0  0  0
 65 67  1  0  0  0  0
 65152  1  0  0  0  0
 66 67  1  0  0  0  0
 67 68  1  0  0  0  0
 68 69  1  0  0  0  0
 68153  1  0  0  0  0
 68154  1  0  0  0  0
 69 70  2  0  0  0  0
 69 71  1  0  0  0  0
 71 72  1  0  0  0  0
 71155  1  0  0  0  0
 72156  1  0  0  0  0
M  END
>  <Molecule Name>
2337360

>  <MolRegNo>
2337360

>  <m>
=

>  <Value>
7120

>  <Unit>
nM

>  <Type>
IC50

>  <pValue>
5.15

>  <Ligand Efficiency>
0

>  <Binding Efficiency>
5.04

>  <Surface Efficiency>
0

>  <Assay Index>
977532

>  <Assay Category>


>  <Assay Organism>
Homo sapiens

>  <Target ID>
10869

>  <Target Name>
Histone deacetylase 8

>  <Target Organism>
Homo sapiens

>  <Target Description>
Target is a single protein chain

>  <Sequence Accession>
Q9BY41

>  <Reference>
Bioorg. Med. Chem. 23 (24), 7543-7564 (2015)

>  <Pubmed ID>
26585275

>  <DOI>
10.1016/j.bmc.2015.10.045

$$$$
2337426
 OpenBabel03252423453D

159163  0  0  0  0  0  0  0  0999 V2000
    0.6991   -0.3109   -0.0756 O   0  0  0  0  0  0  0  0  0  0  0  0
    1.9202   -0.2449   -0.0835 C   0  0  0  0  0  0  0  0  0  0  0  0
    2.7245   -1.3106   -0.3385 O   0  0  0  0  0  0  0  0  0  0  0  0
    2.7105    1.0083    0.2404 C   0  0  2  0  0  0  0  0  0  0  0  0
    2.0595   -2.5353   -0.7548 C   0  0  2  0  0  0  0  0  0  0  0  0
    2.8150    1.1191    1.8510 C   0  0  2  0  0  0  0  0  0  0  0  0
    2.1230    2.0901   -0.6908 C   0  0  0  0  0  0  0  0  0  0  0  0
    2.8720   -3.7645   -0.1867 C   0  0  2  0  0  0  0  0  0  0  0  0
    1.9325   -2.5398   -2.2995 C   0  0  0  0  0  0  0  0  0  0  0  0
    2.1217    2.2319    2.4430 O   0  0  0  0  0  0  0  0  0  0  0  0
    4.3279    1.0590    2.3909 C   0  0  1  0  0  0  0  0  0  0  0  0
    2.2593   -4.9757   -0.6756 O   0  0  0  0  0  0  0  0  0  0  0  0
    2.8794   -3.8698    1.4221 C   0  0  2  0  0  0  0  0  0  0  0  0
    4.2837   -3.7432   -0.8090 C   0  0  0  0  0  0  0  0  0  0  0  0
    1.1065   -1.3986   -2.8827 C   0  0  0  0  0  0  0  0  0  0  0  0
    0.7496    2.3561    2.0793 C   0  0  2  0  0  0  0  0  0  0  0  0
    4.6454    1.0951    3.9895 C   0  0  2  0  0  0  0  0  0  0  0  0
    5.0477   -0.0900    1.6973 C   0  0  0  0  0  0  0  0  0  0  0  0
    2.5207   -2.6556    2.0828 O   0  0  0  0  0  0  0  0  0  0  0  0
    4.2177   -4.3533    2.0349 C   0  0  1  0  0  0  0  0  0  0  0  0
    0.1675    3.5811    2.4086 O   0  0  0  0  0  0  0  0  0  0  0  0
   -0.1709    1.2054    2.3890 C   0  0  0  0  0  0  0  0  0  0  0  0
    5.6860    2.0944    4.2600 O   0  0  0  0  0  0  0  0  0  0  0  0
    5.2722   -0.2403    4.7486 C   0  0  1  0  0  0  0  0  0  0  0  0
    4.4309   -3.9538    3.5016 C   0  0  0  0  0  0  0  0  0  0  0  0
    4.4567   -5.8547    1.9076 C   0  0  0  0  0  0  0  0  0  0  0  0
   -0.4178    3.7502    3.6902 C   0  0  2  0  0  0  0  0  0  0  0  0
   -0.6325    1.1301    3.8332 C   0  0  2  0  0  0  0  0  0  0  0  0
    5.3314    3.4624    4.3522 C   0  0  2  0  0  0  0  0  0  0  0  0
    5.1824   -0.0885    6.2093 O   0  0  0  0  0  0  0  0  0  0  0  0
    4.6396   -1.6173    4.3600 C   0  0  0  0  0  0  0  0  0  0  0  0
    6.8185   -0.2386    4.6506 C   0  0  0  0  0  0  0  0  0  0  0  0
    3.7709   -4.4861    4.4001 O   0  0  0  0  0  0  0  0  0  0  0  0
    5.4594   -2.8519    3.8635 C   0  0  2  0  0  0  0  0  0  0  0  0
   -1.2785    2.5143    4.2851 C   0  0  1  0  0  0  0  0  0  0  0  0
   -1.1672    5.0690    3.4061 C   0  0  0  0  0  0  0  0  0  0  0  0
    0.4863    0.9776    4.7470 O   0  0  0  0  0  0  0  0  0  0  0  0
   -1.5240   -0.1271    3.8790 C   0  0  0  0  0  0  0  0  0  0  0  0
    5.2785    4.0987    3.0685 O   0  0  0  0  0  0  0  0  0  0  0  0
    6.2770    4.3045    5.2725 C   0  0  2  0  0  0  0  0  0  0  0  0
    3.9369   -0.0860    6.8721 C   0  0  0  0  0  0  0  0  0  0  0  0
    6.5432   -2.7173    2.7889 C   0  0  0  0  0  0  0  0  0  0  0  0
   -1.1149    2.6085    5.7335 O   0  0  0  0  0  0  0  0  0  0  0  0
   -2.8106    2.7478    4.0424 C   0  0  0  0  0  0  0  0  0  0  0  0
    1.1965   -0.2422    4.8348 C   0  0  0  0  0  0  0  0  0  0  0  0
    6.5392    4.3082    2.4204 C   0  0  1  0  0  0  0  0  0  0  0  0
    5.6960    5.6288    5.4311 O   0  0  0  0  0  0  0  0  0  0  0  0
    7.7253    4.4775    4.6966 C   0  0  2  0  0  0  0  0  0  0  0  0
   -3.9710    2.0085    4.6843 N   0  0  0  0  0  0  0  0  0  0  0  0
    7.5489    5.0699    3.2819 C   0  0  0  0  0  0  0  0  0  0  0  0
    7.1388    3.0405    1.8259 C   0  0  0  0  0  0  0  0  0  0  0  0
    8.5504    3.2416    4.8053 N   0  0  0  0  0  0  0  0  0  0  0  0
   -3.8254    1.9298    6.1699 C   0  0  0  0  0  0  0  0  0  0  0  0
   -5.1543    2.8340    4.3251 C   0  0  0  0  0  0  0  0  0  0  0  0
    8.9435    2.9819    6.1980 C   0  0  0  0  0  0  0  0  0  0  0  0
    9.7534    3.1822    3.9754 C   0  0  0  0  0  0  0  0  0  0  0  0
   -5.0081    1.4995    7.0538 C   0  0  0  0  0  0  0  0  0  0  0  0
   -6.1964    0.9216    6.6031 C   0  0  0  0  0  0  0  0  0  0  0  0
   -4.9069    1.7550    8.4332 C   0  0  0  0  0  0  0  0  0  0  0  0
   -7.3334    0.8649    7.4394 C   0  0  0  0  0  0  0  0  0  0  0  0
   -6.0154    1.6449    9.2826 C   0  0  0  0  0  0  0  0  0  0  0  0
   -7.2682    1.3018    8.7687 C   0  0  0  0  0  0  0  0  0  0  0  0
   -8.4762    1.4622    9.5612 C   0  0  0  0  0  0  0  0  0  0  0  0
   -9.7497    1.3843    9.0522 N   0  0  0  0  0  0  0  0  0  0  0  0
   -8.5528    1.7806   10.9009 C   0  0  0  0  0  0  0  0  0  0  0  0
  -10.6080    1.6244   10.0361 N   0  0  0  0  0  0  0  0  0  0  0  0
   -9.8899    1.7964   11.1609 N   0  0  0  0  0  0  0  0  0  0  0  0
  -10.5340    1.6985   12.4595 C   0  0  0  0  0  0  0  0  0  0  0  0
  -11.3974    0.4478   12.4940 C   0  0  0  0  0  0  0  0  0  0  0  0
  -11.9667    0.1299   13.8685 C   0  0  0  0  0  0  0  0  0  0  0  0
  -11.7342    0.7840   14.8696 O   0  0  0  0  0  0  0  0  0  0  0  0
  -12.7600   -0.9767   13.8439 N   0  0  0  0  0  0  0  0  0  0  0  0
  -13.2345   -1.4282   15.0922 O   0  0  0  0  0  0  0  0  0  0  0  0
    3.7072    0.8899   -0.1794 H   0  0  0  0  0  0  0  0  0  0  0  0
    1.0466   -2.5962   -0.3335 H   0  0  0  0  0  0  0  0  0  0  0  0
    2.3657    0.2161    2.2700 H   0  0  0  0  0  0  0  0  0  0  0  0
    1.0289    2.0525   -0.7908 H   0  0  0  0  0  0  0  0  0  0  0  0
    2.4543    1.8934   -1.7204 H   0  0  0  0  0  0  0  0  0  0  0  0
    2.4371    3.1002   -0.4249 H   0  0  0  0  0  0  0  0  0  0  0  0
    1.4880   -3.4857   -2.6263 H   0  0  0  0  0  0  0  0  0  0  0  0
    2.9213   -2.4570   -2.7609 H   0  0  0  0  0  0  0  0  0  0  0  0
    4.7424    1.9825    2.0000 H   0  0  0  0  0  0  0  0  0  0  0  0
    1.3439   -5.0155   -0.3425 H   0  0  0  0  0  0  0  0  0  0  0  0
    2.1004   -4.5882    1.7118 H   0  0  0  0  0  0  0  0  0  0  0  0
    4.2455   -3.8104   -1.8999 H   0  0  0  0  0  0  0  0  0  0  0  0
    4.8744   -4.6187   -0.5292 H   0  0  0  0  0  0  0  0  0  0  0  0
    4.8350   -2.8375   -0.5370 H   0  0  0  0  0  0  0  0  0  0  0  0
    0.1114   -1.3533   -2.4335 H   0  0  0  0  0  0  0  0  0  0  0  0
    0.9832   -1.5414   -3.9606 H   0  0  0  0  0  0  0  0  0  0  0  0
    1.6046   -0.4322   -2.7456 H   0  0  0  0  0  0  0  0  0  0  0  0
    0.7238    2.4403    1.0150 H   0  0  0  0  0  0  0  0  0  0  0  0
    3.7487    1.4166    4.5239 H   0  0  0  0  0  0  0  0  0  0  0  0
    4.4981   -1.0200    1.8353 H   0  0  0  0  0  0  0  0  0  0  0  0
    6.0720   -0.1837    2.0371 H   0  0  0  0  0  0  0  0  0  0  0  0
    5.1477    0.0264    0.6206 H   0  0  0  0  0  0  0  0  0  0  0  0
    2.2072   -2.0058    1.4439 H   0  0  0  0  0  0  0  0  0  0  0  0
    5.0045   -3.8774    1.4694 H   0  0  0  0  0  0  0  0  0  0  0  0
    0.3083    0.2679    2.1215 H   0  0  0  0  0  0  0  0  0  0  0  0
   -1.0558    1.3154    1.7472 H   0  0  0  0  0  0  0  0  0  0  0  0
    3.7993   -6.4297    2.5670 H   0  0  0  0  0  0  0  0  0  0  0  0
    5.4902   -6.0836    2.1943 H   0  0  0  0  0  0  0  0  0  0  0  0
    4.3099   -6.2133    0.8853 H   0  0  0  0  0  0  0  0  0  0  0  0
    0.3918    3.9799    4.3930 H   0  0  0  0  0  0  0  0  0  0  0  0
    4.3274    3.5420    4.7876 H   0  0  0  0  0  0  0  0  0  0  0  0
    3.7878   -1.4409    3.7033 H   0  0  0  0  0  0  0  0  0  0  0  0
    4.1536   -2.0235    5.2524 H   0  0  0  0  0  0  0  0  0  0  0  0
    7.2598    0.5178    5.3119 H   0  0  0  0  0  0  0  0  0  0  0  0
    7.1949   -0.0319    3.6507 H   0  0  0  0  0  0  0  0  0  0  0  0
    7.2426   -1.1800    5.0161 H   0  0  0  0  0  0  0  0  0  0  0  0
    5.9895   -3.2518    4.7401 H   0  0  0  0  0  0  0  0  0  0  0  0
   -1.8636    4.9442    2.5616 H   0  0  0  0  0  0  0  0  0  0  0  0
   -0.4554    5.8295    3.0503 H   0  0  0  0  0  0  0  0  0  0  0  0
   -1.6976    5.4845    4.2612 H   0  0  0  0  0  0  0  0  0  0  0  0
   -0.9982   -0.9785    3.4139 H   0  0  0  0  0  0  0  0  0  0  0  0
   -2.4319   -0.0211    3.2808 H   0  0  0  0  0  0  0  0  0  0  0  0
   -1.7528   -0.4457    4.8960 H   0  0  0  0  0  0  0  0  0  0  0  0
    6.3126    3.8819    6.2790 H   0  0  0  0  0  0  0  0  0  0  0  0
    4.1314    0.0461    7.9413 H   0  0  0  0  0  0  0  0  0  0  0  0
    3.4127   -1.0437    6.7823 H   0  0  0  0  0  0  0  0  0  0  0  0
    3.3087    0.7374    6.5422 H   0  0  0  0  0  0  0  0  0  0  0  0
    6.1684   -2.3508    1.8335 H   0  0  0  0  0  0  0  0  0  0  0  0
    6.9872   -3.6989    2.5838 H   0  0  0  0  0  0  0  0  0  0  0  0
    7.3751   -2.0766    3.0714 H   0  0  0  0  0  0  0  0  0  0  0  0
   -0.4574    1.9131    5.9489 H   0  0  0  0  0  0  0  0  0  0  0  0
   -2.9709    2.7224    2.9575 H   0  0  0  0  0  0  0  0  0  0  0  0
   -2.9727    3.7797    4.3735 H   0  0  0  0  0  0  0  0  0  0  0  0
    1.3244   -0.4649    5.8954 H   0  0  0  0  0  0  0  0  0  0  0  0
    2.1850   -0.0973    4.4111 H   0  0  0  0  0  0  0  0  0  0  0  0
    0.7444   -1.1089    4.3587 H   0  0  0  0  0  0  0  0  0  0  0  0
    6.2978    4.9554    1.5691 H   0  0  0  0  0  0  0  0  0  0  0  0
    5.2304    5.8220    4.5917 H   0  0  0  0  0  0  0  0  0  0  0  0
    8.2376    5.2661    5.2706 H   0  0  0  0  0  0  0  0  0  0  0  0
    7.1790    6.0993    3.3976 H   0  0  0  0  0  0  0  0  0  0  0  0
    8.5056    5.1837    2.7596 H   0  0  0  0  0  0  0  0  0  0  0  0
    7.4004    2.3050    2.5890 H   0  0  0  0  0  0  0  0  0  0  0  0
    8.0392    3.2758    1.2531 H   0  0  0  0  0  0  0  0  0  0  0  0
    6.4456    2.5549    1.1402 H   0  0  0  0  0  0  0  0  0  0  0  0
   -3.5467    2.9287    6.5359 H   0  0  0  0  0  0  0  0  0  0  0  0
   -3.0109    1.2353    6.4073 H   0  0  0  0  0  0  0  0  0  0  0  0
   -5.2265    2.9270    3.2364 H   0  0  0  0  0  0  0  0  0  0  0  0
   -5.1006    3.8446    4.7546 H   0  0  0  0  0  0  0  0  0  0  0  0
   -6.1051    2.4050    4.6280 H   0  0  0  0  0  0  0  0  0  0  0  0
    9.4736    2.0249    6.2724 H   0  0  0  0  0  0  0  0  0  0  0  0
    8.0806    2.8940    6.8620 H   0  0  0  0  0  0  0  0  0  0  0  0
    9.6047    3.7655    6.5878 H   0  0  0  0  0  0  0  0  0  0  0  0
   10.2613    2.2203    4.1274 H   0  0  0  0  0  0  0  0  0  0  0  0
   10.4657    3.9838    4.1919 H   0  0  0  0  0  0  0  0  0  0  0  0
    9.5282    3.2017    2.9087 H   0  0  0  0  0  0  0  0  0  0  0  0
   -6.2986    0.5762    5.5796 H   0  0  0  0  0  0  0  0  0  0  0  0
   -3.9665    2.0990    8.8580 H   0  0  0  0  0  0  0  0  0  0  0  0
   -8.2782    0.5228    7.0210 H   0  0  0  0  0  0  0  0  0  0  0  0
   -5.8902    1.8995   10.3315 H   0  0  0  0  0  0  0  0  0  0  0  0
   -7.8133    1.9486   11.6677 H   0  0  0  0  0  0  0  0  0  0  0  0
  -11.1131    2.6151   12.6194 H   0  0  0  0  0  0  0  0  0  0  0  0
   -9.7436    1.6610   13.2197 H   0  0  0  0  0  0  0  0  0  0  0  0
  -10.8049   -0.4177   12.1746 H   0  0  0  0  0  0  0  0  0  0  0  0
  -12.2429    0.5537   11.8039 H   0  0  0  0  0  0  0  0  0  0  0  0
  -12.7604   -1.6592   13.0888 H   0  0  0  0  0  0  0  0  0  0  0  0
  -12.8757   -0.7543   15.7076 H   0  0  0  0  0  0  0  0  0  0  0  0
  1  2  2  0  0  0  0
  2  3  1  0  0  0  0
  2  4  1  0  0  0  0
  3  5  1  0  0  0  0
  4  6  1  1  0  0  0
  4  7  1  0  0  0  0
  4 74  1  0  0  0  0
  5  8  1  1  0  0  0
  5  9  1  0  0  0  0
  5 75  1  0  0  0  0
  6 10  1  0  0  0  0
  6 11  1  1  0  0  0
  6 76  1  0  0  0  0
  7 77  1  0  0  0  0
  7 78  1  0  0  0  0
  7 79  1  0  0  0  0
  8 12  1  0  0  0  0
  8 13  1  1  0  0  0
  8 14  1  0  0  0  0
  9 15  1  0  0  0  0
  9 80  1  0  0  0  0
  9 81  1  0  0  0  0
 11 17  1  1  0  0  0
 11 18  1  0  0  0  0
 11 82  1  0  0  0  0
 12 83  1  0  0  0  0
 13 20  1  1  0  0  0
 13 19  1  0  0  0  0
 13 84  1  0  0  0  0
 14 85  1  0  0  0  0
 14 86  1  0  0  0  0
 14 87  1  0  0  0  0
 15 88  1  0  0  0  0
 15 89  1  0  0  0  0
 15 90  1  0  0  0  0
 16 10  1  0  0  0  0
 16 21  1  0  0  0  0
 16 22  1  0  0  0  0
 16 91  1  6  0  0  0
 17 23  1  0  0  0  0
 17 24  1  1  0  0  0
 17 92  1  0  0  0  0
 18 93  1  0  0  0  0
 18 94  1  0  0  0  0
 18 95  1  0  0  0  0
 19 96  1  0  0  0  0
 20 25  1  0  0  0  0
 20 26  1  0  0  0  0
 20 97  1  6  0  0  0
 21 27  1  0  0  0  0
 22 28  1  0  0  0  0
 22 98  1  0  0  0  0
 22 99  1  0  0  0  0
 24 30  1  1  0  0  0
 24 31  1  0  0  0  0
 24 32  1  0  0  0  0
 25 33  2  0  0  0  0
 25 34  1  0  0  0  0
 26100  1  0  0  0  0
 26101  1  0  0  0  0
 26102  1  0  0  0  0
 27 35  1  1  0  0  0
 27 36  1  0  0  0  0
 27103  1  0  0  0  0
 28 37  1  0  0  0  0
 28 38  1  0  0  0  0
 28 35  1  1  0  0  0
 29 23  1  0  0  0  0
 29 39  1  0  0  0  0
 29 40  1  1  0  0  0
 29104  1  0  0  0  0
 30 41  1  0  0  0  0
 31 34  1  0  0  0  0
 31105  1  0  0  0  0
 31106  1  0  0  0  0
 32107  1  0  0  0  0
 32108  1  0  0  0  0
 32109  1  0  0  0  0
 34 42  1  0  0  0  0
 34110  1  1  0  0  0
 35 43  1  1  0  0  0
 35 44  1  0  0  0  0
 36111  1  0  0  0  0
 36112  1  0  0  0  0
 36113  1  0  0  0  0
 37 45  1  0  0  0  0
 38114  1  0  0  0  0
 38115  1  0  0  0  0
 38116  1  0  0  0  0
 39 46  1  0  0  0  0
 40 48  1  6  0  0  0
 40 47  1  0  0  0  0
 40117  1  0  0  0  0
 41118  1  0  0  0  0
 41119  1  0  0  0  0
 41120  1  0  0  0  0
 42121  1  0  0  0  0
 42122  1  0  0  0  0
 42123  1  0  0  0  0
 43124  1  0  0  0  0
 44 49  1  0  0  0  0
 44125  1  0  0  0  0
 44126  1  0  0  0  0
 45127  1  0  0  0  0
 45128  1  0  0  0  0
 45129  1  0  0  0  0
 46 50  1  0  0  0  0
 46 51  1  0  0  0  0
 46130  1  6  0  0  0
 47131  1  0  0  0  0
 48 50  1  0  0  0  0
 48 52  1  0  0  0  0
 48132  1  1  0  0  0
 49 53  1  0  0  0  0
 49 54  1  0  0  0  0
 50133  1  0  0  0  0
 50134  1  0  0  0  0
 51135  1  0  0  0  0
 51136  1  0  0  0  0
 51137  1  0  0  0  0
 52 55  1  0  0  0  0
 52 56  1  0  0  0  0
 53 57  1  0  0  0  0
 53138  1  0  0  0  0
 53139  1  0  0  0  0
 54140  1  0  0  0  0
 54141  1  0  0  0  0
 54142  1  0  0  0  0
 55143  1  0  0  0  0
 55144  1  0  0  0  0
 55145  1  0  0  0  0
 56146  1  0  0  0  0
 56147  1  0  0  0  0
 56148  1  0  0  0  0
 57 58  2  0  0  0  0
 57 59  1  0  0  0  0
 58 60  1  0  0  0  0
 58149  1  0  0  0  0
 59 61  2  0  0  0  0
 59150  1  0  0  0  0
 60 62  2  0  0  0  0
 60151  1  0  0  0  0
 61 62  1  0  0  0  0
 61152  1  0  0  0  0
 62 63  1  0  0  0  0
 63 64  1  0  0  0  0
 63 65  2  0  0  0  0
 64 66  2  0  0  0  0
 65 67  1  0  0  0  0
 65153  1  0  0  0  0
 66 67  1  0  0  0  0
 67 68  1  0  0  0  0
 68 69  1  0  0  0  0
 68154  1  0  0  0  0
 68155  1  0  0  0  0
 69 70  1  0  0  0  0
 69156  1  0  0  0  0
 69157  1  0  0  0  0
 70 71  2  0  0  0  0
 70 72  1  0  0  0  0
 72 73  1  0  0  0  0
 72158  1  0  0  0  0
 73159  1  0  0  0  0
M  END
>  <Molecule Name>
2337426

>  <MolRegNo>
2337426

>  <m>
=

>  <Value>
10200

>  <Unit>
nM

>  <Type>
IC50

>  <pValue>
4.99

>  <Ligand Efficiency>
0

>  <Binding Efficiency>
4.82

>  <Surface Efficiency>
0

>  <Assay Index>
977532

>  <Assay Category>


>  <Assay Organism>
Homo sapiens

>  <Target ID>
10869

>  <Target Name>
Histone deacetylase 8

>  <Target Organism>
Homo sapiens

>  <Target Description>
Target is a single protein chain

>  <Sequence Accession>
Q9BY41

>  <Reference>
Bioorg. Med. Chem. 23 (24), 7543-7564 (2015)

>  <Pubmed ID>
26585275

>  <DOI>
10.1016/j.bmc.2015.10.045

$$$$
2337319
 OpenBabel03252423453D

162166  0  0  0  0  0  0  0  0999 V2000
    0.6062   -0.3073   -0.0901 O   0  0  0  0  0  0  0  0  0  0  0  0
    1.8245   -0.2684   -0.0855 C   0  0  0  0  0  0  0  0  0  0  0  0
    2.6128   -1.3460   -0.3433 O   0  0  0  0  0  0  0  0  0  0  0  0
    2.6518    0.9713    0.2439 C   0  0  2  0  0  0  0  0  0  0  0  0
    1.9535   -2.5712   -0.7760 C   0  0  2  0  0  0  0  0  0  0  0  0
    2.7797    1.1173    1.8565 C   0  0  2  0  0  0  0  0  0  0  0  0
    2.1027    2.0732   -0.6839 C   0  0  0  0  0  0  0  0  0  0  0  0
    2.7581   -3.8050   -0.1999 C   0  0  2  0  0  0  0  0  0  0  0  0
    1.8638   -2.5648   -2.3214 C   0  0  0  0  0  0  0  0  0  0  0  0
    2.0597    2.2189    2.4373 O   0  0  0  0  0  0  0  0  0  0  0  0
    4.3073    1.0807    2.4345 C   0  0  1  0  0  0  0  0  0  0  0  0
    2.1473   -5.0182   -0.6864 O   0  0  0  0  0  0  0  0  0  0  0  0
    2.7531   -3.8963    1.4068 C   0  0  2  0  0  0  0  0  0  0  0  0
    4.1742   -3.7909   -0.8134 C   0  0  0  0  0  0  0  0  0  0  0  0
    1.0066   -1.4473   -2.9039 C   0  0  0  0  0  0  0  0  0  0  0  0
    0.6866    2.3156    2.0594 C   0  0  2  0  0  0  0  0  0  0  0  0
    4.5213    1.0224    4.0778 C   0  0  2  0  0  0  0  0  0  0  0  0
    5.0004   -0.0763    1.7119 C   0  0  0  0  0  0  0  0  0  0  0  0
    2.4520   -2.6507    2.0390 O   0  0  0  0  0  0  0  0  0  0  0  0
    4.0746   -4.3989    2.0328 C   0  0  1  0  0  0  0  0  0  0  0  0
    0.0828    3.5358    2.3722 O   0  0  0  0  0  0  0  0  0  0  0  0
   -0.2266    1.1539    2.3513 C   0  0  0  0  0  0  0  0  0  0  0  0
    5.4032    2.0730    4.5878 O   0  0  0  0  0  0  0  0  0  0  0  0
    5.2118   -0.3370    4.7597 C   0  0  1  0  0  0  0  0  0  0  0  0
    4.2705   -4.0014    3.5028 C   0  0  0  0  0  0  0  0  0  0  0  0
    4.3134   -5.8996    1.9150 C   0  0  0  0  0  0  0  0  0  0  0  0
   -0.4704    3.7050    3.6656 C   0  0  2  0  0  0  0  0  0  0  0  0
   -0.7237    1.0726    3.7800 C   0  0  2  0  0  0  0  0  0  0  0  0
    5.0758    3.4495    4.5468 C   0  0  2  0  0  0  0  0  0  0  0  0
    4.9431   -0.2508    6.2089 O   0  0  0  0  0  0  0  0  0  0  0  0
    4.5188   -1.6565    4.3076 C   0  0  0  0  0  0  0  0  0  0  0  0
    6.7510   -0.2538    4.6344 C   0  0  0  0  0  0  0  0  0  0  0  0
    3.5877   -4.5227    4.3910 O   0  0  0  0  0  0  0  0  0  0  0  0
    5.3157   -2.9159    3.8698 C   0  0  2  0  0  0  0  0  0  0  0  0
   -1.3332    2.4754    4.2487 C   0  0  1  0  0  0  0  0  0  0  0  0
   -1.2094    5.0388    3.4215 C   0  0  0  0  0  0  0  0  0  0  0  0
    0.3698    0.8572    4.7160 O   0  0  0  0  0  0  0  0  0  0  0  0
   -1.6479   -0.1590    3.8184 C   0  0  0  0  0  0  0  0  0  0  0  0
    6.1677    4.2474    5.0860 O   0  0  0  0  0  0  0  0  0  0  0  0
    3.7585    4.0024    5.1382 C   0  0  2  0  0  0  0  0  0  0  0  0
    5.5613   -1.2363    7.0454 C   0  0  0  0  0  0  0  0  0  0  0  0
    6.4074   -2.7860    2.8009 C   0  0  0  0  0  0  0  0  0  0  0  0
   -1.1022    2.5180    5.6762 O   0  0  0  0  0  0  0  0  0  0  0  0
   -2.8683    2.7665    4.0563 C   0  0  0  0  0  0  0  0  0  0  0  0
    1.0861   -0.3611    4.7815 C   0  0  0  0  0  0  0  0  0  0  0  0
    6.2425    4.3963    6.5136 C   0  0  1  0  0  0  0  0  0  0  0  0
    3.6326    5.3903    4.6844 O   0  0  0  0  0  0  0  0  0  0  0  0
    3.7193    4.0170    6.7031 C   0  0  2  0  0  0  0  0  0  0  0  0
   -4.0037    2.0790    4.7465 N   0  0  0  0  0  0  0  0  0  0  0  0
    4.9304    4.8498    7.1596 C   0  0  0  0  0  0  0  0  0  0  0  0
    6.8681    3.1943    7.2083 C   0  0  0  0  0  0  0  0  0  0  0  0
    3.6242    2.6677    7.3078 N   0  0  0  0  0  0  0  0  0  0  0  0
   -3.9908    2.0866    6.2450 C   0  0  0  0  0  0  0  0  0  0  0  0
   -5.2515    2.7048    4.2594 C   0  0  0  0  0  0  0  0  0  0  0  0
    2.3251    2.0537    7.0316 C   0  0  0  0  0  0  0  0  0  0  0  0
    3.8691    2.5757    8.7469 C   0  0  0  0  0  0  0  0  0  0  0  0
   -3.7914    3.4180    6.9591 C   0  0  0  0  0  0  0  0  0  0  0  0
   -4.7241    4.4578    6.9102 C   0  0  0  0  0  0  0  0  0  0  0  0
   -2.5770    3.6722    7.6028 C   0  0  0  0  0  0  0  0  0  0  0  0
   -4.3164    5.7723    7.1574 C   0  0  0  0  0  0  0  0  0  0  0  0
   -2.1545    4.9779    7.8268 C   0  0  0  0  0  0  0  0  0  0  0  0
   -2.9855    6.0439    7.4886 C   0  0  0  0  0  0  0  0  0  0  0  0
   -2.4721    7.3934    7.4248 C   0  0  0  0  0  0  0  0  0  0  0  0
   -3.2188    8.4965    7.1012 N   0  0  0  0  0  0  0  0  0  0  0  0
   -1.1720    7.7828    7.6607 C   0  0  0  0  0  0  0  0  0  0  0  0
   -2.4456    9.5677    7.2205 N   0  0  0  0  0  0  0  0  0  0  0  0
   -1.2476    9.1444    7.6595 N   0  0  0  0  0  0  0  0  0  0  0  0
   -0.4205   10.0266    8.4566 C   0  0  0  0  0  0  0  0  0  0  0  0
   -1.1251   10.4155    9.7684 C   0  0  0  0  0  0  0  0  0  0  0  0
   -1.5767    9.2331   10.6400 C   0  0  0  0  0  0  0  0  0  0  0  0
   -0.4303    8.3599   11.0325 C   0  0  0  0  0  0  0  0  0  0  0  0
    0.7159    8.7640   11.1799 O   0  0  0  0  0  0  0  0  0  0  0  0
   -0.7563    7.0370   11.2648 N   0  0  0  0  0  0  0  0  0  0  0  0
    0.3164    6.1708   11.5801 O   0  0  0  0  0  0  0  0  0  0  0  0
    3.6417    0.8091   -0.1779 H   0  0  0  0  0  0  0  0  0  0  0  0
    0.9315   -2.6334   -0.3776 H   0  0  0  0  0  0  0  0  0  0  0  0
    2.3401    0.2120    2.2796 H   0  0  0  0  0  0  0  0  0  0  0  0
    1.0097    2.0529   -0.8039 H   0  0  0  0  0  0  0  0  0  0  0  0
    2.4497    1.8845   -1.7083 H   0  0  0  0  0  0  0  0  0  0  0  0
    2.4252    3.0737   -0.3944 H   0  0  0  0  0  0  0  0  0  0  0  0
    1.4628   -3.5214   -2.6717 H   0  0  0  0  0  0  0  0  0  0  0  0
    2.8607   -2.4380   -2.7563 H   0  0  0  0  0  0  0  0  0  0  0  0
    4.7820    2.0076    2.0975 H   0  0  0  0  0  0  0  0  0  0  0  0
    1.2284   -5.0569   -0.3636 H   0  0  0  0  0  0  0  0  0  0  0  0
    1.9508   -4.5846    1.7068 H   0  0  0  0  0  0  0  0  0  0  0  0
    4.1408   -3.8742   -1.9039 H   0  0  0  0  0  0  0  0  0  0  0  0
    4.7656   -4.6609   -0.5180 H   0  0  0  0  0  0  0  0  0  0  0  0
    4.7220   -2.8804   -0.5516 H   0  0  0  0  0  0  0  0  0  0  0  0
    0.0066   -1.4373   -2.4615 H   0  0  0  0  0  0  0  0  0  0  0  0
    0.8977   -1.5853   -3.9845 H   0  0  0  0  0  0  0  0  0  0  0  0
    1.4721   -0.4682   -2.7540 H   0  0  0  0  0  0  0  0  0  0  0  0
    0.6752    2.4023    0.9929 H   0  0  0  0  0  0  0  0  0  0  0  0
    3.5589    1.1831    4.5595 H   0  0  0  0  0  0  0  0  0  0  0  0
    4.4103   -0.9903    1.7874 H   0  0  0  0  0  0  0  0  0  0  0  0
    6.0058   -0.2416    2.0688 H   0  0  0  0  0  0  0  0  0  0  0  0
    5.1338    0.0812    0.6432 H   0  0  0  0  0  0  0  0  0  0  0  0
    1.9318   -2.0910    1.4487 H   0  0  0  0  0  0  0  0  0  0  0  0
    4.8718   -3.9258    1.4771 H   0  0  0  0  0  0  0  0  0  0  0  0
    0.2664    0.2168    2.1049 H   0  0  0  0  0  0  0  0  0  0  0  0
   -1.1020    1.2537    1.6930 H   0  0  0  0  0  0  0  0  0  0  0  0
    3.6553   -6.4686    2.5779 H   0  0  0  0  0  0  0  0  0  0  0  0
    5.3466   -6.1242    2.2092 H   0  0  0  0  0  0  0  0  0  0  0  0
    4.1723   -6.2635    0.8955 H   0  0  0  0  0  0  0  0  0  0  0  0
    0.3527    3.9150    4.3588 H   0  0  0  0  0  0  0  0  0  0  0  0
    5.0832    3.7177    3.4862 H   0  0  0  0  0  0  0  0  0  0  0  0
    3.7544   -1.4256    3.5735 H   0  0  0  0  0  0  0  0  0  0  0  0
    3.8849   -1.9974    5.1428 H   0  0  0  0  0  0  0  0  0  0  0  0
    7.1655    0.4913    5.3248 H   0  0  0  0  0  0  0  0  0  0  0  0
    7.0964    0.0263    3.6408 H   0  0  0  0  0  0  0  0  0  0  0  0
    7.2374   -1.1916    4.9182 H   0  0  0  0  0  0  0  0  0  0  0  0
    5.8323   -3.3126    4.7540 H   0  0  0  0  0  0  0  0  0  0  0  0
   -1.9123    4.9414    2.5785 H   0  0  0  0  0  0  0  0  0  0  0  0
   -0.4944    5.8034    3.0871 H   0  0  0  0  0  0  0  0  0  0  0  0
   -1.7329    5.4348    4.2912 H   0  0  0  0  0  0  0  0  0  0  0  0
   -1.1385   -1.0200    3.3527 H   0  0  0  0  0  0  0  0  0  0  0  0
   -2.5557   -0.0294    3.2259 H   0  0  0  0  0  0  0  0  0  0  0  0
   -1.8818   -0.4765    4.8360 H   0  0  0  0  0  0  0  0  0  0  0  0
    2.8963    3.4818    4.7209 H   0  0  0  0  0  0  0  0  0  0  0  0
    5.2332   -1.0707    8.0756 H   0  0  0  0  0  0  0  0  0  0  0  0
    6.6526   -1.1588    7.0378 H   0  0  0  0  0  0  0  0  0  0  0  0
    5.2686   -2.2538    6.7721 H   0  0  0  0  0  0  0  0  0  0  0  0
    6.0363   -2.4102    1.8467 H   0  0  0  0  0  0  0  0  0  0  0  0
    6.8513   -3.7672    2.5943 H   0  0  0  0  0  0  0  0  0  0  0  0
    7.2379   -2.1445    3.0845 H   0  0  0  0  0  0  0  0  0  0  0  0
   -0.6219    1.6925    5.8874 H   0  0  0  0  0  0  0  0  0  0  0  0
   -3.0525    2.6986    2.9756 H   0  0  0  0  0  0  0  0  0  0  0  0
   -3.0188    3.8120    4.3331 H   0  0  0  0  0  0  0  0  0  0  0  0
    1.2737   -0.5776    5.8374 H   0  0  0  0  0  0  0  0  0  0  0  0
    2.0544   -0.2227    4.3176 H   0  0  0  0  0  0  0  0  0  0  0  0
    0.6054   -1.2261    4.3323 H   0  0  0  0  0  0  0  0  0  0  0  0
    6.9516    5.2207    6.6683 H   0  0  0  0  0  0  0  0  0  0  0  0
    4.5464    5.7379    4.6239 H   0  0  0  0  0  0  0  0  0  0  0  0
    2.8337    4.5914    7.0147 H   0  0  0  0  0  0  0  0  0  0  0  0
    4.7511    5.8945    6.8648 H   0  0  0  0  0  0  0  0  0  0  0  0
    5.0132    4.9009    8.2520 H   0  0  0  0  0  0  0  0  0  0  0  0
    6.2565    2.2952    7.1190 H   0  0  0  0  0  0  0  0  0  0  0  0
    7.0178    3.4063    8.2750 H   0  0  0  0  0  0  0  0  0  0  0  0
    7.8408    2.9603    6.7703 H   0  0  0  0  0  0  0  0  0  0  0  0
   -3.2195    1.3774    6.5677 H   0  0  0  0  0  0  0  0  0  0  0  0
   -4.9265    1.6442    6.6152 H   0  0  0  0  0  0  0  0  0  0  0  0
   -5.3601    2.5675    3.1784 H   0  0  0  0  0  0  0  0  0  0  0  0
   -5.2792    3.7868    4.4365 H   0  0  0  0  0  0  0  0  0  0  0  0
   -6.1351    2.2599    4.7286 H   0  0  0  0  0  0  0  0  0  0  0  0
    2.3186    1.0112    7.3675 H   0  0  0  0  0  0  0  0  0  0  0  0
    2.1203    2.0308    5.9645 H   0  0  0  0  0  0  0  0  0  0  0  0
    1.5017    2.5844    7.5212 H   0  0  0  0  0  0  0  0  0  0  0  0
    3.7921    1.5294    9.0703 H   0  0  0  0  0  0  0  0  0  0  0  0
    3.1609    3.1681    9.3346 H   0  0  0  0  0  0  0  0  0  0  0  0
    4.8828    2.8731    9.0232 H   0  0  0  0  0  0  0  0  0  0  0  0
   -5.7437    4.2776    6.5827 H   0  0  0  0  0  0  0  0  0  0  0  0
   -1.8739    2.8656    7.7959 H   0  0  0  0  0  0  0  0  0  0  0  0
   -5.0229    6.5854    7.0021 H   0  0  0  0  0  0  0  0  0  0  0  0
   -1.1319    5.1250    8.1622 H   0  0  0  0  0  0  0  0  0  0  0  0
   -0.2748    7.2513    7.9429 H   0  0  0  0  0  0  0  0  0  0  0  0
   -0.2021   10.9107    7.8497 H   0  0  0  0  0  0  0  0  0  0  0  0
    0.5294    9.5135    8.6464 H   0  0  0  0  0  0  0  0  0  0  0  0
   -2.0097   11.0222    9.5331 H   0  0  0  0  0  0  0  0  0  0  0  0
   -0.4503   11.0542   10.3509 H   0  0  0  0  0  0  0  0  0  0  0  0
   -2.3412    8.6321   10.0987 H   0  0  0  0  0  0  0  0  0  0  0  0
   -2.0636    9.6031   11.5440 H   0  0  0  0  0  0  0  0  0  0  0  0
   -1.6390    6.6060   11.0064 H   0  0  0  0  0  0  0  0  0  0  0  0
    1.0789    6.7868   11.6476 H   0  0  0  0  0  0  0  0  0  0  0  0
  1  2  2  0  0  0  0
  2  3  1  0  0  0  0
  2  4  1  0  0  0  0
  3  5  1  0  0  0  0
  4  6  1  1  0  0  0
  4  7  1  0  0  0  0
  4 75  1  0  0  0  0
  5  8  1  1  0  0  0
  5  9  1  0  0  0  0
  5 76  1  0  0  0  0
  6 10  1  0  0  0  0
  6 11  1  1  0  0  0
  6 77  1  0  0  0  0
  7 78  1  0  0  0  0
  7 79  1  0  0  0  0
  7 80  1  0  0  0  0
  8 12  1  0  0  0  0
  8 13  1  1  0  0  0
  8 14  1  0  0  0  0
  9 15  1  0  0  0  0
  9 81  1  0  0  0  0
  9 82  1  0  0  0  0
 11 17  1  1  0  0  0
 11 18  1  0  0  0  0
 11 83  1  0  0  0  0
 12 84  1  0  0  0  0
 13 20  1  1  0  0  0
 13 19  1  0  0  0  0
 13 85  1  0  0  0  0
 14 86  1  0  0  0  0
 14 87  1  0  0  0  0
 14 88  1  0  0  0  0
 15 89  1  0  0  0  0
 15 90  1  0  0  0  0
 15 91  1  0  0  0  0
 16 10  1  0  0  0  0
 16 21  1  0  0  0  0
 16 22  1  0  0  0  0
 16 92  1  6  0  0  0
 17 23  1  0  0  0  0
 17 24  1  1  0  0  0
 17 93  1  0  0  0  0
 18 94  1  0  0  0  0
 18 95  1  0  0  0  0
 18 96  1  0  0  0  0
 19 97  1  0  0  0  0
 20 25  1  0  0  0  0
 20 26  1  0  0  0  0
 20 98  1  6  0  0  0
 21 27  1  0  0  0  0
 22 28  1  0  0  0  0
 22 99  1  0  0  0  0
 22100  1  0  0  0  0
 24 30  1  1  0  0  0
 24 31  1  0  0  0  0
 24 32  1  0  0  0  0
 25 33  2  0  0  0  0
 25 34  1  0  0  0  0
 26101  1  0  0  0  0
 26102  1  0  0  0  0
 26103  1  0  0  0  0
 27 35  1  1  0  0  0
 27 36  1  0  0  0  0
 27104  1  0  0  0  0
 28 37  1  0  0  0  0
 28 38  1  0  0  0  0
 28 35  1  1  0  0  0
 29 23  1  0  0  0  0
 29 39  1  0  0  0  0
 29 40  1  1  0  0  0
 29105  1  0  0  0  0
 30 41  1  0  0  0  0
 31 34  1  0  0  0  0
 31106  1  0  0  0  0
 31107  1  0  0  0  0
 32108  1  0  0  0  0
 32109  1  0  0  0  0
 32110  1  0  0  0  0
 34 42  1  0  0  0  0
 34111  1  1  0  0  0
 35 43  1  1  0  0  0
 35 44  1  0  0  0  0
 36112  1  0  0  0  0
 36113  1  0  0  0  0
 36114  1  0  0  0  0
 37 45  1  0  0  0  0
 38115  1  0  0  0  0
 38116  1  0  0  0  0
 38117  1  0  0  0  0
 39 46  1  0  0  0  0
 40 48  1  1  0  0  0
 40 47  1  0  0  0  0
 40118  1  0  0  0  0
 41119  1  0  0  0  0
 41120  1  0  0  0  0
 41121  1  0  0  0  0
 42122  1  0  0  0  0
 42123  1  0  0  0  0
 42124  1  0  0  0  0
 43125  1  0  0  0  0
 44 49  1  0  0  0  0
 44126  1  0  0  0  0
 44127  1  0  0  0  0
 45128  1  0  0  0  0
 45129  1  0  0  0  0
 45130  1  0  0  0  0
 46 50  1  0  0  0  0
 46 51  1  0  0  0  0
 46131  1  1  0  0  0
 47132  1  0  0  0  0
 48 50  1  0  0  0  0
 48 52  1  0  0  0  0
 48133  1  1  0  0  0
 49 53  1  0  0  0  0
 49 54  1  0  0  0  0
 50134  1  0  0  0  0
 50135  1  0  0  0  0
 51136  1  0  0  0  0
 51137  1  0  0  0  0
 51138  1  0  0  0  0
 52 55  1  0  0  0  0
 52 56  1  0  0  0  0
 53 57  1  0  0  0  0
 53139  1  0  0  0  0
 53140  1  0  0  0  0
 54141  1  0  0  0  0
 54142  1  0  0  0  0
 54143  1  0  0  0  0
 55144  1  0  0  0  0
 55145  1  0  0  0  0
 55146  1  0  0  0  0
 56147  1  0  0  0  0
 56148  1  0  0  0  0
 56149  1  0  0  0  0
 57 58  2  0  0  0  0
 57 59  1  0  0  0  0
 58 60  1  0  0  0  0
 58150  1  0  0  0  0
 59 61  2  0  0  0  0
 59151  1  0  0  0  0
 60 62  2  0  0  0  0
 60152  1  0  0  0  0
 61 62  1  0  0  0  0
 61153  1  0  0  0  0
 62 63  1  0  0  0  0
 63 64  1  0  0  0  0
 63 65  2  0  0  0  0
 64 66  2  0  0  0  0
 65 67  1  0  0  0  0
 65154  1  0  0  0  0
 66 67  1  0  0  0  0
 67 68  1  0  0  0  0
 68 69  1  0  0  0  0
 68155  1  0  0  0  0
 68156  1  0  0  0  0
 69 70  1  0  0  0  0
 69157  1  0  0  0  0
 69158  1  0  0  0  0
 70 71  1  0  0  0  0
 70159  1  0  0  0  0
 70160  1  0  0  0  0
 71 72  2  0  0  0  0
 71 73  1  0  0  0  0
 73 74  1  0  0  0  0
 73161  1  0  0  0  0
 74162  1  0  0  0  0
M  END
>  <Molecule Name>
2337319

>  <MolRegNo>
2337319

>  <m>
=

>  <Value>
2530

>  <Unit>
nM

>  <Type>
IC50

>  <pValue>
5.6

>  <Ligand Efficiency>
0

>  <Binding Efficiency>
5.33

>  <Surface Efficiency>
0

>  <Assay Index>
977532

>  <Assay Category>


>  <Assay Organism>
Homo sapiens

>  <Target ID>
10869

>  <Target Name>
Histone deacetylase 8

>  <Target Organism>
Homo sapiens

>  <Target Description>
Target is a single protein chain

>  <Sequence Accession>
Q9BY41

>  <Reference>
Bioorg. Med. Chem. 23 (24), 7543-7564 (2015)

>  <Pubmed ID>
26585275

>  <DOI>
10.1016/j.bmc.2015.10.045

$$$$
2337399
 OpenBabel03252423453D

165169  0  0  0  0  0  0  0  0999 V2000
    0.5323   -0.3062   -0.1090 O   0  0  0  0  0  0  0  0  0  0  0  0
    1.7529   -0.2540   -0.0851 C   0  0  0  0  0  0  0  0  0  0  0  0
    2.5551   -1.3294   -0.3184 O   0  0  0  0  0  0  0  0  0  0  0  0
    2.5535    0.9983    0.2364 C   0  0  2  0  0  0  0  0  0  0  0  0
    1.8871   -2.5509   -0.7528 C   0  0  2  0  0  0  0  0  0  0  0  0
    2.6627    1.1276    1.8447 C   0  0  2  0  0  0  0  0  0  0  0  0
    1.9778    2.0860   -0.6952 C   0  0  0  0  0  0  0  0  0  0  0  0
    2.6995   -3.7853   -0.1996 C   0  0  2  0  0  0  0  0  0  0  0  0
    1.7777   -2.5512   -2.3005 C   0  0  0  0  0  0  0  0  0  0  0  0
    1.9825    2.2556    2.4243 O   0  0  0  0  0  0  0  0  0  0  0  0
    4.1735    1.0618    2.3900 C   0  0  1  0  0  0  0  0  0  0  0  0
    2.0986   -4.9957   -0.7028 O   0  0  0  0  0  0  0  0  0  0  0  0
    2.6888   -3.9072    1.4049 C   0  0  2  0  0  0  0  0  0  0  0  0
    4.1186   -3.7364   -0.8146 C   0  0  0  0  0  0  0  0  0  0  0  0
    0.9558   -1.4157   -2.8952 C   0  0  0  0  0  0  0  0  0  0  0  0
    0.6126    2.3946    2.0526 C   0  0  2  0  0  0  0  0  0  0  0  0
    4.4816    1.0909    3.9927 C   0  0  2  0  0  0  0  0  0  0  0  0
    4.8819   -0.0966    1.6980 C   0  0  0  0  0  0  0  0  0  0  0  0
    2.2362   -2.7108    2.0437 O   0  0  0  0  0  0  0  0  0  0  0  0
    4.0312   -4.3520    2.0321 C   0  0  1  0  0  0  0  0  0  0  0  0
    0.0292    3.6268    2.3704 O   0  0  0  0  0  0  0  0  0  0  0  0
   -0.3014    1.2392    2.3525 C   0  0  0  0  0  0  0  0  0  0  0  0
    5.5233    2.0854    4.2725 O   0  0  0  0  0  0  0  0  0  0  0  0
    5.1049   -0.2503    4.7483 C   0  0  1  0  0  0  0  0  0  0  0  0
    4.2243   -3.9561    3.5009 C   0  0  0  0  0  0  0  0  0  0  0  0
    4.3014   -5.8515    1.9078 C   0  0  0  0  0  0  0  0  0  0  0  0
   -0.5453    3.8005    3.6552 C   0  0  2  0  0  0  0  0  0  0  0  0
   -0.7618    1.1665    3.7936 C   0  0  2  0  0  0  0  0  0  0  0  0
    5.1776    3.4542    4.3962 C   0  0  2  0  0  0  0  0  0  0  0  0
    5.0180   -0.0992    6.2091 O   0  0  0  0  0  0  0  0  0  0  0  0
    4.4637   -1.6241    4.3571 C   0  0  0  0  0  0  0  0  0  0  0  0
    6.6521   -0.2520    4.6502 C   0  0  0  0  0  0  0  0  0  0  0  0
    3.5394   -4.4790    4.3860 O   0  0  0  0  0  0  0  0  0  0  0  0
    5.2718   -2.8696    3.8722 C   0  0  2  0  0  0  0  0  0  0  0  0
   -1.3602    2.5771    4.2566 C   0  0  1  0  0  0  0  0  0  0  0  0
   -1.2997    5.1186    3.4413 C   0  0  0  0  0  0  0  0  0  0  0  0
    0.3636    0.9734    4.6989 O   0  0  0  0  0  0  0  0  0  0  0  0
   -1.6606   -0.0838    3.8585 C   0  0  0  0  0  0  0  0  0  0  0  0
    5.1273    4.1133    3.1246 O   0  0  0  0  0  0  0  0  0  0  0  0
    6.1388    4.2659    5.3322 C   0  0  2  0  0  0  0  0  0  0  0  0
    3.7740   -0.1041    6.8769 C   0  0  0  0  0  0  0  0  0  0  0  0
    6.3647   -2.7410    2.8041 C   0  0  0  0  0  0  0  0  0  0  0  0
   -1.0380    2.6448    5.7154 O   0  0  0  0  0  0  0  0  0  0  0  0
   -2.9090    2.7572    4.3947 C   0  0  0  0  0  0  0  0  0  0  0  0
    1.0330   -0.2668    4.8013 C   0  0  0  0  0  0  0  0  0  0  0  0
    6.3872    4.3202    2.4756 C   0  0  1  0  0  0  0  0  0  0  0  0
    5.5830    5.5933    5.5352 O   0  0  0  0  0  0  0  0  0  0  0  0
    7.5840    4.4401    4.7517 C   0  0  2  0  0  0  0  0  0  0  0  0
   -3.9625    2.9925    3.3721 N   0  0  0  0  0  0  0  0  0  0  0  0
    7.4071    5.0557    3.3468 C   0  0  0  0  0  0  0  0  0  0  0  0
    6.9720    3.0576    1.8555 C   0  0  0  0  0  0  0  0  0  0  0  0
    8.4045    3.2001    4.8433 N   0  0  0  0  0  0  0  0  0  0  0  0
   -4.1617    1.8131    2.5140 C   0  0  0  0  0  0  0  0  0  0  0  0
   -5.1984    3.2724    4.1568 C   0  0  0  0  0  0  0  0  0  0  0  0
    8.8054    2.9314    6.2327 C   0  0  0  0  0  0  0  0  0  0  0  0
    9.6042    3.1532    4.0079 C   0  0  0  0  0  0  0  0  0  0  0  0
   -5.4193    1.7638    1.6632 C   0  0  0  0  0  0  0  0  0  0  0  0
   -5.9615    2.8791    1.0144 C   0  0  0  0  0  0  0  0  0  0  0  0
   -6.0973    0.5410    1.5709 C   0  0  0  0  0  0  0  0  0  0  0  0
   -7.2512    2.8234    0.4785 C   0  0  0  0  0  0  0  0  0  0  0  0
   -7.3677    0.4796    1.0244 C   0  0  0  0  0  0  0  0  0  0  0  0
   -7.9920    1.6372    0.5616 C   0  0  0  0  0  0  0  0  0  0  0  0
   -9.4083    1.6026    0.2706 C   0  0  0  0  0  0  0  0  0  0  0  0
  -10.0930    2.4416   -0.5654 N   0  0  0  0  0  0  0  0  0  0  0  0
  -10.2931    0.7210    0.8493 C   0  0  0  0  0  0  0  0  0  0  0  0
  -11.3668    2.0168   -0.6362 N   0  0  0  0  0  0  0  0  0  0  0  0
  -11.4740    0.9844    0.2241 N   0  0  0  0  0  0  0  0  0  0  0  0
  -12.6551    0.1690    0.2594 C   0  0  0  0  0  0  0  0  0  0  0  0
  -13.3890    0.0908    1.6047 C   0  0  0  0  0  0  0  0  0  0  0  0
  -14.1278    1.3815    1.9545 C   0  0  0  0  0  0  0  0  0  0  0  0
  -14.9303    1.2348    3.2483 C   0  0  0  0  0  0  0  0  0  0  0  0
  -15.5942    2.5358    3.6416 C   0  0  0  0  0  0  0  0  0  0  0  0
  -15.5192    3.5801    2.9997 O   0  0  0  0  0  0  0  0  0  0  0  0
  -16.3046    2.4600    4.8209 N   0  0  0  0  0  0  0  0  0  0  0  0
  -17.0311    3.6314    5.1480 O   0  0  0  0  0  0  0  0  0  0  0  0
    3.5473    0.8668   -0.1851 H   0  0  0  0  0  0  0  0  0  0  0  0
    0.8737   -2.6139   -0.3354 H   0  0  0  0  0  0  0  0  0  0  0  0
    2.2072    0.2320    2.2729 H   0  0  0  0  0  0  0  0  0  0  0  0
    0.8847    2.0559   -0.7968 H   0  0  0  0  0  0  0  0  0  0  0  0
    2.3112    1.8951   -1.7245 H   0  0  0  0  0  0  0  0  0  0  0  0
    2.2992    3.0929   -0.4213 H   0  0  0  0  0  0  0  0  0  0  0  0
    1.3443   -3.4998   -2.6352 H   0  0  0  0  0  0  0  0  0  0  0  0
    2.7725   -2.4630   -2.7492 H   0  0  0  0  0  0  0  0  0  0  0  0
    4.5970    1.9824    2.0028 H   0  0  0  0  0  0  0  0  0  0  0  0
    1.1817   -5.0435   -0.3683 H   0  0  0  0  0  0  0  0  0  0  0  0
    1.9359   -4.6572    1.6826 H   0  0  0  0  0  0  0  0  0  0  0  0
    4.0874   -3.8210   -1.9065 H   0  0  0  0  0  0  0  0  0  0  0  0
    4.7062   -4.6117   -0.5326 H   0  0  0  0  0  0  0  0  0  0  0  0
    4.6687   -2.8337   -0.5393 H   0  0  0  0  0  0  0  0  0  0  0  0
   -0.0433   -1.3690   -2.4538 H   0  0  0  0  0  0  0  0  0  0  0  0
    0.8412   -1.5660   -3.9740 H   0  0  0  0  0  0  0  0  0  0  0  0
    1.4532   -0.4514   -2.7594 H   0  0  0  0  0  0  0  0  0  0  0  0
    0.5991    2.4857    0.9878 H   0  0  0  0  0  0  0  0  0  0  0  0
    3.5812    1.4101    4.5238 H   0  0  0  0  0  0  0  0  0  0  0  0
    4.3211   -1.0203    1.8350 H   0  0  0  0  0  0  0  0  0  0  0  0
    5.8999   -0.2085    2.0459 H   0  0  0  0  0  0  0  0  0  0  0  0
    4.9906    0.0185    0.6214 H   0  0  0  0  0  0  0  0  0  0  0  0
    2.4066   -1.9644    1.4536 H   0  0  0  0  0  0  0  0  0  0  0  0
    4.8119   -3.8594    1.4720 H   0  0  0  0  0  0  0  0  0  0  0  0
    0.1762    0.2976    2.0946 H   0  0  0  0  0  0  0  0  0  0  0  0
   -1.1784    1.3424    1.7017 H   0  0  0  0  0  0  0  0  0  0  0  0
    3.6507   -6.4363    2.5652 H   0  0  0  0  0  0  0  0  0  0  0  0
    5.3373   -6.0639    2.1990 H   0  0  0  0  0  0  0  0  0  0  0  0
    4.1632   -6.2133    0.8864 H   0  0  0  0  0  0  0  0  0  0  0  0
    0.2874    4.0223    4.3352 H   0  0  0  0  0  0  0  0  0  0  0  0
    4.1757    3.5326    4.8362 H   0  0  0  0  0  0  0  0  0  0  0  0
    3.6226   -1.4463    3.6890 H   0  0  0  0  0  0  0  0  0  0  0  0
    3.9645   -2.0218    5.2471 H   0  0  0  0  0  0  0  0  0  0  0  0
    7.0955    0.5034    5.3119 H   0  0  0  0  0  0  0  0  0  0  0  0
    7.0306   -0.0459    3.6507 H   0  0  0  0  0  0  0  0  0  0  0  0
    7.0739   -1.1938    5.0169 H   0  0  0  0  0  0  0  0  0  0  0  0
    5.7930   -3.2766    4.7510 H   0  0  0  0  0  0  0  0  0  0  0  0
   -2.0143    5.0337    2.6119 H   0  0  0  0  0  0  0  0  0  0  0  0
   -0.5870    5.8897    3.1090 H   0  0  0  0  0  0  0  0  0  0  0  0
   -1.8038    5.4943    4.3309 H   0  0  0  0  0  0  0  0  0  0  0  0
   -1.1418   -0.9519    3.4224 H   0  0  0  0  0  0  0  0  0  0  0  0
   -2.5398   -0.0161    3.2298 H   0  0  0  0  0  0  0  0  0  0  0  0
   -1.9259   -0.3671    4.8766 H   0  0  0  0  0  0  0  0  0  0  0  0
    6.1756    3.8130    6.3261 H   0  0  0  0  0  0  0  0  0  0  0  0
    3.9707    0.0532    7.9429 H   0  0  0  0  0  0  0  0  0  0  0  0
    3.2658   -1.0680    6.8069 H   0  0  0  0  0  0  0  0  0  0  0  0
    3.1294    0.7039    6.5346 H   0  0  0  0  0  0  0  0  0  0  0  0
    6.0009   -2.3667    1.8471 H   0  0  0  0  0  0  0  0  0  0  0  0
    6.8037   -3.7251    2.5982 H   0  0  0  0  0  0  0  0  0  0  0  0
    7.2005   -2.1083    3.0921 H   0  0  0  0  0  0  0  0  0  0  0  0
   -0.4332    1.8919    5.8769 H   0  0  0  0  0  0  0  0  0  0  0  0
   -2.9922    3.6306    5.0598 H   0  0  0  0  0  0  0  0  0  0  0  0
   -3.2450    1.9239    5.0333 H   0  0  0  0  0  0  0  0  0  0  0  0
    1.1532   -0.4853    5.8652 H   0  0  0  0  0  0  0  0  0  0  0  0
    2.0251   -0.1489    4.3804 H   0  0  0  0  0  0  0  0  0  0  0  0
    0.5615   -1.1257    4.3333 H   0  0  0  0  0  0  0  0  0  0  0  0
    6.1506    4.9849    1.6364 H   0  0  0  0  0  0  0  0  0  0  0  0
    5.1303    5.8276    4.7007 H   0  0  0  0  0  0  0  0  0  0  0  0
    8.1022    5.2187    5.3337 H   0  0  0  0  0  0  0  0  0  0  0  0
    7.0480    6.0870    3.4800 H   0  0  0  0  0  0  0  0  0  0  0  0
    8.3625    5.1682    2.8224 H   0  0  0  0  0  0  0  0  0  0  0  0
    7.2176    2.3001    2.6021 H   0  0  0  0  0  0  0  0  0  0  0  0
    7.8795    3.2910    1.2933 H   0  0  0  0  0  0  0  0  0  0  0  0
    6.2756    2.6021    1.1524 H   0  0  0  0  0  0  0  0  0  0  0  0
   -4.2198    0.9415    3.1737 H   0  0  0  0  0  0  0  0  0  0  0  0
   -3.3052    1.6947    1.8396 H   0  0  0  0  0  0  0  0  0  0  0  0
   -5.0625    4.1730    4.7675 H   0  0  0  0  0  0  0  0  0  0  0  0
   -5.4528    2.4425    4.8299 H   0  0  0  0  0  0  0  0  0  0  0  0
   -6.0718    3.4800    3.5372 H   0  0  0  0  0  0  0  0  0  0  0  0
    9.3389    1.9758    6.2980 H   0  0  0  0  0  0  0  0  0  0  0  0
    7.9457    2.8361    6.8999 H   0  0  0  0  0  0  0  0  0  0  0  0
    9.4652    3.7146    6.6256 H   0  0  0  0  0  0  0  0  0  0  0  0
   10.1238    2.1972    4.1554 H   0  0  0  0  0  0  0  0  0  0  0  0
   10.3080    3.9631    4.2217 H   0  0  0  0  0  0  0  0  0  0  0  0
    9.3705    3.1719    2.9428 H   0  0  0  0  0  0  0  0  0  0  0  0
   -5.4189    3.8244    1.0251 H   0  0  0  0  0  0  0  0  0  0  0  0
   -5.6653   -0.3651    1.9995 H   0  0  0  0  0  0  0  0  0  0  0  0
   -7.6941    3.7283    0.0684 H   0  0  0  0  0  0  0  0  0  0  0  0
   -7.8794   -0.4793    1.0238 H   0  0  0  0  0  0  0  0  0  0  0  0
  -10.1735   -0.0731    1.5753 H   0  0  0  0  0  0  0  0  0  0  0  0
  -12.3115   -0.8395    0.0018 H   0  0  0  0  0  0  0  0  0  0  0  0
  -13.3287    0.4901   -0.5417 H   0  0  0  0  0  0  0  0  0  0  0  0
  -12.6911   -0.1669    2.4117 H   0  0  0  0  0  0  0  0  0  0  0  0
  -14.1177   -0.7291    1.5488 H   0  0  0  0  0  0  0  0  0  0  0  0
  -14.8044    1.6498    1.1347 H   0  0  0  0  0  0  0  0  0  0  0  0
  -13.4062    2.2021    2.0533 H   0  0  0  0  0  0  0  0  0  0  0  0
  -14.2713    0.9211    4.0674 H   0  0  0  0  0  0  0  0  0  0  0  0
  -15.7034    0.4697    3.1213 H   0  0  0  0  0  0  0  0  0  0  0  0
  -16.6966    1.5869    5.1586 H   0  0  0  0  0  0  0  0  0  0  0  0
  -16.7532    4.2552    4.4398 H   0  0  0  0  0  0  0  0  0  0  0  0
  1  2  2  0  0  0  0
  2  3  1  0  0  0  0
  2  4  1  0  0  0  0
  3  5  1  0  0  0  0
  4  6  1  1  0  0  0
  4  7  1  0  0  0  0
  4 76  1  0  0  0  0
  5  8  1  1  0  0  0
  5  9  1  0  0  0  0
  5 77  1  0  0  0  0
  6 10  1  0  0  0  0
  6 11  1  1  0  0  0
  6 78  1  0  0  0  0
  7 79  1  0  0  0  0
  7 80  1  0  0  0  0
  7 81  1  0  0  0  0
  8 12  1  0  0  0  0
  8 13  1  1  0  0  0
  8 14  1  0  0  0  0
  9 15  1  0  0  0  0
  9 82  1  0  0  0  0
  9 83  1  0  0  0  0
 11 17  1  1  0  0  0
 11 18  1  0  0  0  0
 11 84  1  0  0  0  0
 12 85  1  0  0  0  0
 13 20  1  1  0  0  0
 13 19  1  0  0  0  0
 13 86  1  0  0  0  0
 14 87  1  0  0  0  0
 14 88  1  0  0  0  0
 14 89  1  0  0  0  0
 15 90  1  0  0  0  0
 15 91  1  0  0  0  0
 15 92  1  0  0  0  0
 16 10  1  0  0  0  0
 16 21  1  0  0  0  0
 16 22  1  0  0  0  0
 16 93  1  6  0  0  0
 17 23  1  0  0  0  0
 17 24  1  1  0  0  0
 17 94  1  0  0  0  0
 18 95  1  0  0  0  0
 18 96  1  0  0  0  0
 18 97  1  0  0  0  0
 19 98  1  0  0  0  0
 20 25  1  0  0  0  0
 20 26  1  0  0  0  0
 20 99  1  6  0  0  0
 21 27  1  0  0  0  0
 22 28  1  0  0  0  0
 22100  1  0  0  0  0
 22101  1  0  0  0  0
 24 30  1  1  0  0  0
 24 31  1  0  0  0  0
 24 32  1  0  0  0  0
 25 33  2  0  0  0  0
 25 34  1  0  0  0  0
 26102  1  0  0  0  0
 26103  1  0  0  0  0
 26104  1  0  0  0  0
 27 35  1  1  0  0  0
 27 36  1  0  0  0  0
 27105  1  0  0  0  0
 28 37  1  0  0  0  0
 28 38  1  0  0  0  0
 28 35  1  1  0  0  0
 29 23  1  0  0  0  0
 29 39  1  0  0  0  0
 29 40  1  1  0  0  0
 29106  1  0  0  0  0
 30 41  1  0  0  0  0
 31 34  1  0  0  0  0
 31107  1  0  0  0  0
 31108  1  0  0  0  0
 32109  1  0  0  0  0
 32110  1  0  0  0  0
 32111  1  0  0  0  0
 34 42  1  0  0  0  0
 34112  1  1  0  0  0
 35 43  1  1  0  0  0
 35 44  1  0  0  0  0
 36113  1  0  0  0  0
 36114  1  0  0  0  0
 36115  1  0  0  0  0
 37 45  1  0  0  0  0
 38116  1  0  0  0  0
 38117  1  0  0  0  0
 38118  1  0  0  0  0
 39 46  1  0  0  0  0
 40 48  1  6  0  0  0
 40 47  1  0  0  0  0
 40119  1  0  0  0  0
 41120  1  0  0  0  0
 41121  1  0  0  0  0
 41122  1  0  0  0  0
 42123  1  0  0  0  0
 42124  1  0  0  0  0
 42125  1  0  0  0  0
 43126  1  0  0  0  0
 44 49  1  0  0  0  0
 44127  1  0  0  0  0
 44128  1  0  0  0  0
 45129  1  0  0  0  0
 45130  1  0  0  0  0
 45131  1  0  0  0  0
 46 50  1  0  0  0  0
 46 51  1  0  0  0  0
 46132  1  6  0  0  0
 47133  1  0  0  0  0
 48 50  1  0  0  0  0
 48 52  1  0  0  0  0
 48134  1  1  0  0  0
 49 53  1  0  0  0  0
 49 54  1  0  0  0  0
 50135  1  0  0  0  0
 50136  1  0  0  0  0
 51137  1  0  0  0  0
 51138  1  0  0  0  0
 51139  1  0  0  0  0
 52 55  1  0  0  0  0
 52 56  1  0  0  0  0
 53 57  1  0  0  0  0
 53140  1  0  0  0  0
 53141  1  0  0  0  0
 54142  1  0  0  0  0
 54143  1  0  0  0  0
 54144  1  0  0  0  0
 55145  1  0  0  0  0
 55146  1  0  0  0  0
 55147  1  0  0  0  0
 56148  1  0  0  0  0
 56149  1  0  0  0  0
 56150  1  0  0  0  0
 57 58  2  0  0  0  0
 57 59  1  0  0  0  0
 58 60  1  0  0  0  0
 58151  1  0  0  0  0
 59 61  2  0  0  0  0
 59152  1  0  0  0  0
 60 62  2  0  0  0  0
 60153  1  0  0  0  0
 61 62  1  0  0  0  0
 61154  1  0  0  0  0
 62 63  1  0  0  0  0
 63 64  1  0  0  0  0
 63 65  2  0  0  0  0
 64 66  2  0  0  0  0
 65 67  1  0  0  0  0
 65155  1  0  0  0  0
 66 67  1  0  0  0  0
 67 68  1  0  0  0  0
 68 69  1  0  0  0  0
 68156  1  0  0  0  0
 68157  1  0  0  0  0
 69 70  1  0  0  0  0
 69158  1  0  0  0  0
 69159  1  0  0  0  0
 70 71  1  0  0  0  0
 70160  1  0  0  0  0
 70161  1  0  0  0  0
 71 72  1  0  0  0  0
 71162  1  0  0  0  0
 71163  1  0  0  0  0
 72 73  2  0  0  0  0
 72 74  1  0  0  0  0
 74 75  1  0  0  0  0
 74164  1  0  0  0  0
 75165  1  0  0  0  0
M  END
>  <Molecule Name>
2337399

>  <MolRegNo>
2337399

>  <m>
=

>  <Value>
1820

>  <Unit>
nM

>  <Type>
IC50

>  <pValue>
5.74

>  <Ligand Efficiency>
0

>  <Binding Efficiency>
5.4

>  <Surface Efficiency>
0

>  <Assay Index>
977532

>  <Assay Category>


>  <Assay Organism>
Homo sapiens

>  <Target ID>
10869

>  <Target Name>
Histone deacetylase 8

>  <Target Organism>
Homo sapiens

>  <Target Description>
Target is a single protein chain

>  <Sequence Accession>
Q9BY41

>  <Reference>
Bioorg. Med. Chem. 23 (24), 7543-7564 (2015)

>  <Pubmed ID>
26585275

>  <DOI>
10.1016/j.bmc.2015.10.045

$$$$
2337377
 OpenBabel03252423453D

168172  0  0  0  0  0  0  0  0999 V2000
    0.4967   -0.2455   -0.1057 O   0  0  0  0  0  0  0  0  0  0  0  0
    1.7100   -0.1978   -0.0922 C   0  0  0  0  0  0  0  0  0  0  0  0
    2.5097   -1.2757   -0.3105 O   0  0  0  0  0  0  0  0  0  0  0  0
    2.5347    1.0458    0.2410 C   0  0  2  0  0  0  0  0  0  0  0  0
    1.8460   -2.4927   -0.7503 C   0  0  2  0  0  0  0  0  0  0  0  0
    2.6513    1.1850    1.8547 C   0  0  2  0  0  0  0  0  0  0  0  0
    1.9652    2.1311   -0.6986 C   0  0  0  0  0  0  0  0  0  0  0  0
    2.6565   -3.7294   -0.1904 C   0  0  2  0  0  0  0  0  0  0  0  0
    1.7545   -2.4851   -2.2996 C   0  0  0  0  0  0  0  0  0  0  0  0
    1.9738    2.3215    2.4203 O   0  0  0  0  0  0  0  0  0  0  0  0
    4.1600    1.1200    2.3993 C   0  0  1  0  0  0  0  0  0  0  0  0
    2.0527   -4.9389   -0.6902 O   0  0  0  0  0  0  0  0  0  0  0  0
    2.6462   -3.8437    1.4151 C   0  0  2  0  0  0  0  0  0  0  0  0
    4.0748   -3.6985   -0.8030 C   0  0  0  0  0  0  0  0  0  0  0  0
    0.9177   -1.3563   -2.8891 C   0  0  0  0  0  0  0  0  0  0  0  0
    0.6056    2.4504    2.0411 C   0  0  2  0  0  0  0  0  0  0  0  0
    4.4709    1.1546    4.0025 C   0  0  2  0  0  0  0  0  0  0  0  0
    4.8547   -0.0512    1.7174 C   0  0  0  0  0  0  0  0  0  0  0  0
    2.1911   -2.6449    2.0479 O   0  0  0  0  0  0  0  0  0  0  0  0
    3.9913   -4.2817    2.0425 C   0  0  1  0  0  0  0  0  0  0  0  0
    0.0130    3.6795    2.3418 O   0  0  0  0  0  0  0  0  0  0  0  0
   -0.2978    1.2872    2.3387 C   0  0  0  0  0  0  0  0  0  0  0  0
    5.5179    2.1463    4.2792 O   0  0  0  0  0  0  0  0  0  0  0  0
    5.0860   -0.1888    4.7644 C   0  0  1  0  0  0  0  0  0  0  0  0
    4.1867   -3.8866    3.5105 C   0  0  0  0  0  0  0  0  0  0  0  0
    4.2672   -5.7801    1.9208 C   0  0  0  0  0  0  0  0  0  0  0  0
   -0.5931    3.8597    3.6101 C   0  0  2  0  0  0  0  0  0  0  0  0
   -0.7785    1.2241    3.7714 C   0  0  2  0  0  0  0  0  0  0  0  0
    5.1730    3.5165    4.3949 C   0  0  2  0  0  0  0  0  0  0  0  0
    4.9952   -0.0317    6.2252 O   0  0  0  0  0  0  0  0  0  0  0  0
    4.4419   -1.5635    4.3806 C   0  0  0  0  0  0  0  0  0  0  0  0
    6.6330   -0.1985    4.6663 C   0  0  0  0  0  0  0  0  0  0  0  0
    3.4994   -4.4056    4.3960 O   0  0  0  0  0  0  0  0  0  0  0  0
    5.2429   -2.8087    3.8817 C   0  0  2  0  0  0  0  0  0  0  0  0
   -1.4098    2.6318    4.1989 C   0  0  1  0  0  0  0  0  0  0  0  0
   -1.3501    5.1698    3.3560 C   0  0  0  0  0  0  0  0  0  0  0  0
    0.3390    1.0673    4.6928 O   0  0  0  0  0  0  0  0  0  0  0  0
   -1.6527   -0.0446    3.8374 C   0  0  0  0  0  0  0  0  0  0  0  0
    5.1229    4.1674    3.1191 O   0  0  0  0  0  0  0  0  0  0  0  0
    6.1288    4.3397    5.3269 C   0  0  2  0  0  0  0  0  0  0  0  0
    3.7484   -0.0358    6.8893 C   0  0  0  0  0  0  0  0  0  0  0  0
    6.3361   -2.6843    2.8132 C   0  0  0  0  0  0  0  0  0  0  0  0
   -1.1419    2.7186    5.6668 O   0  0  0  0  0  0  0  0  0  0  0  0
   -2.9636    2.7937    4.2735 C   0  0  0  0  0  0  0  0  0  0  0  0
    1.0148   -0.1647    4.8429 C   0  0  0  0  0  0  0  0  0  0  0  0
    6.3841    4.3764    2.4727 C   0  0  1  0  0  0  0  0  0  0  0  0
    5.5639    5.6662    5.5150 O   0  0  0  0  0  0  0  0  0  0  0  0
    7.5752    4.5168    4.7484 C   0  0  2  0  0  0  0  0  0  0  0  0
   -3.9772    2.9980    3.2050 N   0  0  0  0  0  0  0  0  0  0  0  0
    7.3955    5.1271    3.3415 C   0  0  0  0  0  0  0  0  0  0  0  0
    6.9797    3.1105    1.8699 C   0  0  0  0  0  0  0  0  0  0  0  0
    8.3975    3.2782    4.8412 N   0  0  0  0  0  0  0  0  0  0  0  0
   -4.1283    1.7991    2.3633 C   0  0  0  0  0  0  0  0  0  0  0  0
   -5.2451    3.2817    3.9337 C   0  0  0  0  0  0  0  0  0  0  0  0
    8.7890    3.0007    6.2308 C   0  0  0  0  0  0  0  0  0  0  0  0
    9.6011    3.2299    4.0114 C   0  0  0  0  0  0  0  0  0  0  0  0
   -5.3389    1.7250    1.4536 C   0  0  0  0  0  0  0  0  0  0  0  0
   -5.8643    2.8290    0.7682 C   0  0  0  0  0  0  0  0  0  0  0  0
   -5.9909    0.4912    1.3417 C   0  0  0  0  0  0  0  0  0  0  0  0
   -7.1352    2.7544    0.1796 C   0  0  0  0  0  0  0  0  0  0  0  0
   -7.2352    0.4111    0.7331 C   0  0  0  0  0  0  0  0  0  0  0  0
   -7.8626    1.5621    0.2386 C   0  0  0  0  0  0  0  0  0  0  0  0
   -9.2705    1.5042   -0.0961 C   0  0  0  0  0  0  0  0  0  0  0  0
   -9.9596    2.3492   -0.9244 N   0  0  0  0  0  0  0  0  0  0  0  0
  -10.1482    0.5881    0.4405 C   0  0  0  0  0  0  0  0  0  0  0  0
  -11.2229    1.9272   -0.9840 N   0  0  0  0  0  0  0  0  0  0  0  0
  -11.3219    0.8475   -0.1903 N   0  0  0  0  0  0  0  0  0  0  0  0
  -12.4807   -0.0172   -0.2066 C   0  0  0  0  0  0  0  0  0  0  0  0
  -13.2717    0.0222    1.0972 C   0  0  0  0  0  0  0  0  0  0  0  0
  -14.3901   -1.0226    1.0978 C   0  0  0  0  0  0  0  0  0  0  0  0
  -15.1766   -0.9766    2.4102 C   0  0  0  0  0  0  0  0  0  0  0  0
  -16.3185   -1.9860    2.4197 C   0  0  0  0  0  0  0  0  0  0  0  0
  -17.1254   -1.9249    3.7060 C   0  0  0  0  0  0  0  0  0  0  0  0
  -16.8446   -1.2149    4.6549 O   0  0  0  0  0  0  0  0  0  0  0  0
  -18.2292   -2.7355    3.6862 N   0  0  0  0  0  0  0  0  0  0  0  0
  -18.9632   -2.7984    4.8956 O   0  0  0  0  0  0  0  0  0  0  0  0
    3.5295    0.9023   -0.1798 H   0  0  0  0  0  0  0  0  0  0  0  0
    0.8266   -2.5549   -0.3441 H   0  0  0  0  0  0  0  0  0  0  0  0
    2.1955    0.2965    2.2950 H   0  0  0  0  0  0  0  0  0  0  0  0
    0.8701    2.1044   -0.8070 H   0  0  0  0  0  0  0  0  0  0  0  0
    2.2991    1.9294   -1.7262 H   0  0  0  0  0  0  0  0  0  0  0  0
    2.2847    3.1408   -0.4335 H   0  0  0  0  0  0  0  0  0  0  0  0
    1.3369   -3.4367   -2.6454 H   0  0  0  0  0  0  0  0  0  0  0  0
    2.7519   -2.3756   -2.7396 H   0  0  0  0  0  0  0  0  0  0  0  0
    4.5897    2.0343    2.0038 H   0  0  0  0  0  0  0  0  0  0  0  0
    1.1383   -4.9834   -0.3544 H   0  0  0  0  0  0  0  0  0  0  0  0
    1.8960   -4.5944    1.6953 H   0  0  0  0  0  0  0  0  0  0  0  0
    4.0451   -3.7746   -1.8940 H   0  0  0  0  0  0  0  0  0  0  0  0
    4.6744   -4.5644   -0.5128 H   0  0  0  0  0  0  0  0  0  0  0  0
    4.6164   -2.7851   -0.5353 H   0  0  0  0  0  0  0  0  0  0  0  0
   -0.0798   -1.3207   -2.4436 H   0  0  0  0  0  0  0  0  0  0  0  0
    0.8002   -1.5033   -3.9675 H   0  0  0  0  0  0  0  0  0  0  0  0
    1.4055   -0.3866   -2.7522 H   0  0  0  0  0  0  0  0  0  0  0  0
    0.5968    2.5358    0.9765 H   0  0  0  0  0  0  0  0  0  0  0  0
    3.5742    1.4830    4.5337 H   0  0  0  0  0  0  0  0  0  0  0  0
    4.2914   -0.9695    1.8771 H   0  0  0  0  0  0  0  0  0  0  0  0
    5.8766   -0.1590    2.0548 H   0  0  0  0  0  0  0  0  0  0  0  0
    4.9494    0.0424    0.6378 H   0  0  0  0  0  0  0  0  0  0  0  0
    2.3855   -1.8982    1.4654 H   0  0  0  0  0  0  0  0  0  0  0  0
    4.7684   -3.7848    1.4814 H   0  0  0  0  0  0  0  0  0  0  0  0
    0.1933    0.3475    2.1014 H   0  0  0  0  0  0  0  0  0  0  0  0
   -1.1627    1.3710    1.6720 H   0  0  0  0  0  0  0  0  0  0  0  0
    3.6222   -6.3653    2.5835 H   0  0  0  0  0  0  0  0  0  0  0  0
    5.3052   -5.9872    2.2079 H   0  0  0  0  0  0  0  0  0  0  0  0
    4.1251   -6.1461    0.9015 H   0  0  0  0  0  0  0  0  0  0  0  0
    0.2194    4.0963    4.3090 H   0  0  0  0  0  0  0  0  0  0  0  0
    4.1703    3.5965    4.8330 H   0  0  0  0  0  0  0  0  0  0  0  0
    3.5830   -1.3869    3.7335 H   0  0  0  0  0  0  0  0  0  0  0  0
    3.9652   -1.9660    5.2810 H   0  0  0  0  0  0  0  0  0  0  0  0
    7.0813    0.5522    5.3298 H   0  0  0  0  0  0  0  0  0  0  0  0
    7.0099    0.0085    3.6662 H   0  0  0  0  0  0  0  0  0  0  0  0
    7.0500   -1.1443    5.0282 H   0  0  0  0  0  0  0  0  0  0  0  0
    5.7647   -3.2238    4.7567 H   0  0  0  0  0  0  0  0  0  0  0  0
   -2.0363    5.0701    2.5039 H   0  0  0  0  0  0  0  0  0  0  0  0
   -0.6316    5.9412    3.0344 H   0  0  0  0  0  0  0  0  0  0  0  0
   -1.8846    5.5554    4.2226 H   0  0  0  0  0  0  0  0  0  0  0  0
   -1.1075   -0.9072    3.4233 H   0  0  0  0  0  0  0  0  0  0  0  0
   -2.5219   -0.0047    3.1921 H   0  0  0  0  0  0  0  0  0  0  0  0
   -1.9305   -0.3220    4.8540 H   0  0  0  0  0  0  0  0  0  0  0  0
    6.1651    3.8976    6.3255 H   0  0  0  0  0  0  0  0  0  0  0  0
    3.9422    0.1088    7.9577 H   0  0  0  0  0  0  0  0  0  0  0  0
    3.2315   -0.9945    6.8076 H   0  0  0  0  0  0  0  0  0  0  0  0
    3.1114    0.7805    6.5534 H   0  0  0  0  0  0  0  0  0  0  0  0
    5.9757   -2.3121    1.8537 H   0  0  0  0  0  0  0  0  0  0  0  0
    6.7723   -3.6704    2.6111 H   0  0  0  0  0  0  0  0  0  0  0  0
    7.1736   -2.0531    3.0997 H   0  0  0  0  0  0  0  0  0  0  0  0
   -0.5638    1.9547    5.8669 H   0  0  0  0  0  0  0  0  0  0  0  0
   -3.0836    3.6775    4.9210 H   0  0  0  0  0  0  0  0  0  0  0  0
   -3.3148    1.9680    4.9128 H   0  0  0  0  0  0  0  0  0  0  0  0
    1.0548   -0.3918    5.9114 H   0  0  0  0  0  0  0  0  0  0  0  0
    2.0340   -0.0292    4.4999 H   0  0  0  0  0  0  0  0  0  0  0  0
    0.6018   -1.0252    4.3231 H   0  0  0  0  0  0  0  0  0  0  0  0
    6.1463    5.0308    1.6259 H   0  0  0  0  0  0  0  0  0  0  0  0
    5.1005    5.8830    4.6814 H   0  0  0  0  0  0  0  0  0  0  0  0
    8.0909    5.2980    5.3292 H   0  0  0  0  0  0  0  0  0  0  0  0
    7.0260    6.1555    3.4699 H   0  0  0  0  0  0  0  0  0  0  0  0
    8.3510    5.2466    2.8186 H   0  0  0  0  0  0  0  0  0  0  0  0
    7.2359    2.3674    2.6271 H   0  0  0  0  0  0  0  0  0  0  0  0
    7.8826    3.3457    1.3010 H   0  0  0  0  0  0  0  0  0  0  0  0
    6.2864    2.6345    1.1779 H   0  0  0  0  0  0  0  0  0  0  0  0
   -4.2171    0.9396    3.0369 H   0  0  0  0  0  0  0  0  0  0  0  0
   -3.2457    1.6730    1.7349 H   0  0  0  0  0  0  0  0  0  0  0  0
   -5.1438    4.1972    4.5293 H   0  0  0  0  0  0  0  0  0  0  0  0
   -5.5186    2.4642    4.6145 H   0  0  0  0  0  0  0  0  0  0  0  0
   -6.0960    3.4661    3.2751 H   0  0  0  0  0  0  0  0  0  0  0  0
    9.3189    2.0428    6.2930 H   0  0  0  0  0  0  0  0  0  0  0  0
    7.9250    2.9031    6.8920 H   0  0  0  0  0  0  0  0  0  0  0  0
    9.4488    3.7792    6.6326 H   0  0  0  0  0  0  0  0  0  0  0  0
   10.1109    2.2677    4.1537 H   0  0  0  0  0  0  0  0  0  0  0  0
   10.3115    4.0311    4.2356 H   0  0  0  0  0  0  0  0  0  0  0  0
    9.3752    3.2596    2.9449 H   0  0  0  0  0  0  0  0  0  0  0  0
   -5.3353    3.7803    0.7846 H   0  0  0  0  0  0  0  0  0  0  0  0
   -5.5721   -0.4056    1.7925 H   0  0  0  0  0  0  0  0  0  0  0  0
   -7.5759    3.6500   -0.2537 H   0  0  0  0  0  0  0  0  0  0  0  0
   -7.7356   -0.5532    0.7097 H   0  0  0  0  0  0  0  0  0  0  0  0
  -10.0338   -0.2143    1.1530 H   0  0  0  0  0  0  0  0  0  0  0  0
  -12.1000   -1.0308   -0.3867 H   0  0  0  0  0  0  0  0  0  0  0  0
  -13.1056    0.2592   -1.0617 H   0  0  0  0  0  0  0  0  0  0  0  0
  -13.6932    1.0245    1.2409 H   0  0  0  0  0  0  0  0  0  0  0  0
  -12.6064   -0.1640    1.9501 H   0  0  0  0  0  0  0  0  0  0  0  0
  -13.9605   -2.0237    0.9625 H   0  0  0  0  0  0  0  0  0  0  0  0
  -15.0616   -0.8427    0.2496 H   0  0  0  0  0  0  0  0  0  0  0  0
  -15.5783    0.0341    2.5561 H   0  0  0  0  0  0  0  0  0  0  0  0
  -14.5026   -1.1745    3.2531 H   0  0  0  0  0  0  0  0  0  0  0  0
  -15.9268   -3.0008    2.3195 H   0  0  0  0  0  0  0  0  0  0  0  0
  -16.9956   -1.7936    1.5786 H   0  0  0  0  0  0  0  0  0  0  0  0
  -18.3385   -3.5095    3.0473 H   0  0  0  0  0  0  0  0  0  0  0  0
  -18.4823   -2.1600    5.4679 H   0  0  0  0  0  0  0  0  0  0  0  0
  1  2  2  0  0  0  0
  2  3  1  0  0  0  0
  2  4  1  0  0  0  0
  3  5  1  0  0  0  0
  4  6  1  1  0  0  0
  4  7  1  0  0  0  0
  4 77  1  0  0  0  0
  5  8  1  1  0  0  0
  5  9  1  0  0  0  0
  5 78  1  0  0  0  0
  6 10  1  0  0  0  0
  6 11  1  1  0  0  0
  6 79  1  0  0  0  0
  7 80  1  0  0  0  0
  7 81  1  0  0  0  0
  7 82  1  0  0  0  0
  8 12  1  0  0  0  0
  8 13  1  1  0  0  0
  8 14  1  0  0  0  0
  9 15  1  0  0  0  0
  9 83  1  0  0  0  0
  9 84  1  0  0  0  0
 11 17  1  1  0  0  0
 11 18  1  0  0  0  0
 11 85  1  0  0  0  0
 12 86  1  0  0  0  0
 13 20  1  1  0  0  0
 13 19  1  0  0  0  0
 13 87  1  0  0  0  0
 14 88  1  0  0  0  0
 14 89  1  0  0  0  0
 14 90  1  0  0  0  0
 15 91  1  0  0  0  0
 15 92  1  0  0  0  0
 15 93  1  0  0  0  0
 16 10  1  0  0  0  0
 16 21  1  0  0  0  0
 16 22  1  0  0  0  0
 16 94  1  6  0  0  0
 17 23  1  0  0  0  0
 17 24  1  1  0  0  0
 17 95  1  0  0  0  0
 18 96  1  0  0  0  0
 18 97  1  0  0  0  0
 18 98  1  0  0  0  0
 19 99  1  0  0  0  0
 20 25  1  0  0  0  0
 20 26  1  0  0  0  0
 20100  1  6  0  0  0
 21 27  1  0  0  0  0
 22 28  1  0  0  0  0
 22101  1  0  0  0  0
 22102  1  0  0  0  0
 24 30  1  1  0  0  0
 24 31  1  0  0  0  0
 24 32  1  0  0  0  0
 25 33  2  0  0  0  0
 25 34  1  0  0  0  0
 26103  1  0  0  0  0
 26104  1  0  0  0  0
 26105  1  0  0  0  0
 27 35  1  1  0  0  0
 27 36  1  0  0  0  0
 27106  1  0  0  0  0
 28 37  1  0  0  0  0
 28 38  1  0  0  0  0
 28 35  1  1  0  0  0
 29 23  1  0  0  0  0
 29 39  1  0  0  0  0
 29 40  1  1  0  0  0
 29107  1  0  0  0  0
 30 41  1  0  0  0  0
 31 34  1  0  0  0  0
 31108  1  0  0  0  0
 31109  1  0  0  0  0
 32110  1  0  0  0  0
 32111  1  0  0  0  0
 32112  1  0  0  0  0
 34 42  1  0  0  0  0
 34113  1  1  0  0  0
 35 43  1  1  0  0  0
 35 44  1  0  0  0  0
 36114  1  0  0  0  0
 36115  1  0  0  0  0
 36116  1  0  0  0  0
 37 45  1  0  0  0  0
 38117  1  0  0  0  0
 38118  1  0  0  0  0
 38119  1  0  0  0  0
 39 46  1  0  0  0  0
 40 48  1  6  0  0  0
 40 47  1  0  0  0  0
 40120  1  0  0  0  0
 41121  1  0  0  0  0
 41122  1  0  0  0  0
 41123  1  0  0  0  0
 42124  1  0  0  0  0
 42125  1  0  0  0  0
 42126  1  0  0  0  0
 43127  1  0  0  0  0
 44 49  1  0  0  0  0
 44128  1  0  0  0  0
 44129  1  0  0  0  0
 45130  1  0  0  0  0
 45131  1  0  0  0  0
 45132  1  0  0  0  0
 46 50  1  0  0  0  0
 46 51  1  0  0  0  0
 46133  1  6  0  0  0
 47134  1  0  0  0  0
 48 50  1  0  0  0  0
 48 52  1  0  0  0  0
 48135  1  1  0  0  0
 49 53  1  0  0  0  0
 49 54  1  0  0  0  0
 50136  1  0  0  0  0
 50137  1  0  0  0  0
 51138  1  0  0  0  0
 51139  1  0  0  0  0
 51140  1  0  0  0  0
 52 55  1  0  0  0  0
 52 56  1  0  0  0  0
 53 57  1  0  0  0  0
 53141  1  0  0  0  0
 53142  1  0  0  0  0
 54143  1  0  0  0  0
 54144  1  0  0  0  0
 54145  1  0  0  0  0
 55146  1  0  0  0  0
 55147  1  0  0  0  0
 55148  1  0  0  0  0
 56149  1  0  0  0  0
 56150  1  0  0  0  0
 56151  1  0  0  0  0
 57 58  2  0  0  0  0
 57 59  1  0  0  0  0
 58 60  1  0  0  0  0
 58152  1  0  0  0  0
 59 61  2  0  0  0  0
 59153  1  0  0  0  0
 60 62  2  0  0  0  0
 60154  1  0  0  0  0
 61 62  1  0  0  0  0
 61155  1  0  0  0  0
 62 63  1  0  0  0  0
 63 64  1  0  0  0  0
 63 65  2  0  0  0  0
 64 66  2  0  0  0  0
 65 67  1  0  0  0  0
 65156  1  0  0  0  0
 66 67  1  0  0  0  0
 67 68  1  0  0  0  0
 68 69  1  0  0  0  0
 68157  1  0  0  0  0
 68158  1  0  0  0  0
 69 70  1  0  0  0  0
 69159  1  0  0  0  0
 69160  1  0  0  0  0
 70 71  1  0  0  0  0
 70161  1  0  0  0  0
 70162  1  0  0  0  0
 71 72  1  0  0  0  0
 71163  1  0  0  0  0
 71164  1  0  0  0  0
 72 73  1  0  0  0  0
 72165  1  0  0  0  0
 72166  1  0  0  0  0
 73 74  2  0  0  0  0
 73 75  1  0  0  0  0
 75 76  1  0  0  0  0
 75167  1  0  0  0  0
 76168  1  0  0  0  0
M  END
>  <Molecule Name>
2337377

>  <MolRegNo>
2337377

>  <m>
=

>  <Value>
985

>  <Unit>
nM

>  <Type>
IC50

>  <pValue>
6.01

>  <Ligand Efficiency>
0

>  <Binding Efficiency>
5.58

>  <Surface Efficiency>
0

>  <Assay Index>
977532

>  <Assay Category>


>  <Assay Organism>
Homo sapiens

>  <Target ID>
10869

>  <Target Name>
Histone deacetylase 8

>  <Target Organism>
Homo sapiens

>  <Target Description>
Target is a single protein chain

>  <Sequence Accession>
Q9BY41

>  <Reference>
Bioorg. Med. Chem. 23 (24), 7543-7564 (2015)

>  <Pubmed ID>
26585275

>  <DOI>
10.1016/j.bmc.2015.10.045

$$$$
2337321
 OpenBabel03252423453D

171175  0  0  0  0  0  0  0  0999 V2000
    0.6368   -0.2700   -0.0454 O   0  0  0  0  0  0  0  0  0  0  0  0
    1.8599   -0.2227   -0.0446 C   0  0  0  0  0  0  0  0  0  0  0  0
    2.6622   -1.2904   -0.3101 O   0  0  0  0  0  0  0  0  0  0  0  0
    2.6853    1.0174    0.2639 C   0  0  2  0  0  0  0  0  0  0  0  0
    2.0028   -2.5077   -0.7605 C   0  0  2  0  0  0  0  0  0  0  0  0
    2.8263    1.1577    1.8703 C   0  0  2  0  0  0  0  0  0  0  0  0
    2.1255    2.1129   -0.6707 C   0  0  0  0  0  0  0  0  0  0  0  0
    2.8276   -3.7426   -0.2191 C   0  0  2  0  0  0  0  0  0  0  0  0
    1.8932   -2.4813   -2.3084 C   0  0  0  0  0  0  0  0  0  0  0  0
    2.1670    2.2975    2.4472 O   0  0  0  0  0  0  0  0  0  0  0  0
    4.3453    1.0979    2.3923 C   0  0  1  0  0  0  0  0  0  0  0  0
    2.2365   -4.9533   -0.7284 O   0  0  0  0  0  0  0  0  0  0  0  0
    2.8242   -3.8635    1.3857 C   0  0  2  0  0  0  0  0  0  0  0  0
    4.2437   -3.6918   -0.8338 C   0  0  0  0  0  0  0  0  0  0  0  0
    1.0551   -1.3425   -2.8773 C   0  0  0  0  0  0  0  0  0  0  0  0
    0.8010    2.4324    2.0833 C   0  0  2  0  0  0  0  0  0  0  0  0
    4.6692    1.1368    3.9900 C   0  0  2  0  0  0  0  0  0  0  0  0
    5.0645   -0.0513    1.6953 C   0  0  0  0  0  0  0  0  0  0  0  0
    2.3654   -2.6638    2.0143 O   0  0  0  0  0  0  0  0  0  0  0  0
    4.1745   -4.2880    2.0117 C   0  0  1  0  0  0  0  0  0  0  0  0
    0.2319    3.6885    2.3920 O   0  0  0  0  0  0  0  0  0  0  0  0
   -0.1283    1.3005    2.4247 C   0  0  0  0  0  0  0  0  0  0  0  0
    5.7176    2.1298    4.2512 O   0  0  0  0  0  0  0  0  0  0  0  0
    5.2837   -0.2040    4.7494 C   0  0  1  0  0  0  0  0  0  0  0  0
    4.3623   -3.8934    3.4820 C   0  0  0  0  0  0  0  0  0  0  0  0
    4.4568   -5.7853    1.8908 C   0  0  0  0  0  0  0  0  0  0  0  0
   -0.3335    3.8814    3.6815 C   0  0  2  0  0  0  0  0  0  0  0  0
   -0.5652    1.2586    3.8598 C   0  0  2  0  0  0  0  0  0  0  0  0
    5.3631    3.4973    4.3740 C   0  0  2  0  0  0  0  0  0  0  0  0
    5.1994   -0.0488    6.2096 O   0  0  0  0  0  0  0  0  0  0  0  0
    4.6304   -1.5731    4.3608 C   0  0  0  0  0  0  0  0  0  0  0  0
    6.8306   -0.2167    4.6555 C   0  0  0  0  0  0  0  0  0  0  0  0
    3.6642   -4.4070    4.3622 O   0  0  0  0  0  0  0  0  0  0  0  0
    5.4239   -2.8237    3.8636 C   0  0  2  0  0  0  0  0  0  0  0  0
   -1.1511    2.6791    4.3026 C   0  0  1  0  0  0  0  0  0  0  0  0
   -1.0860    5.2026    3.4359 C   0  0  0  0  0  0  0  0  0  0  0  0
    0.5697    1.0868    4.7574 O   0  0  0  0  0  0  0  0  0  0  0  0
   -1.4713    0.0181    3.9665 C   0  0  0  0  0  0  0  0  0  0  0  0
    5.3063    4.1560    3.1033 O   0  0  0  0  0  0  0  0  0  0  0  0
    6.3119    4.3199    5.3123 C   0  0  2  0  0  0  0  0  0  0  0  0
    3.9563   -0.0424    6.8794 C   0  0  0  0  0  0  0  0  0  0  0  0
    6.5248   -2.7003    2.8031 C   0  0  0  0  0  0  0  0  0  0  0  0
   -0.8378    2.7729    5.7614 O   0  0  0  0  0  0  0  0  0  0  0  0
   -2.6977    2.8535    4.4178 C   0  0  0  0  0  0  0  0  0  0  0  0
    1.2149   -0.1650    4.8958 C   0  0  0  0  0  0  0  0  0  0  0  0
    6.5647    4.3821    2.4563 C   0  0  1  0  0  0  0  0  0  0  0  0
    5.7346    5.6391    5.5128 O   0  0  0  0  0  0  0  0  0  0  0  0
    7.7551    4.5121    4.7344 C   0  0  2  0  0  0  0  0  0  0  0  0
   -3.7155    3.0632    3.3638 N   0  0  0  0  0  0  0  0  0  0  0  0
    7.5710    5.1313    3.3320 C   0  0  0  0  0  0  0  0  0  0  0  0
    7.1625    3.1278    1.8322 C   0  0  0  0  0  0  0  0  0  0  0  0
    8.5884    3.2795    4.8122 N   0  0  0  0  0  0  0  0  0  0  0  0
   -3.9262    1.8666    2.5304 C   0  0  0  0  0  0  0  0  0  0  0  0
   -4.9661    3.4051    4.0952 C   0  0  0  0  0  0  0  0  0  0  0  0
    8.9790    2.9885    6.1996 C   0  0  0  0  0  0  0  0  0  0  0  0
    9.7984    3.2694    3.9880 C   0  0  0  0  0  0  0  0  0  0  0  0
   -5.1460    1.9262    1.6384 C   0  0  0  0  0  0  0  0  0  0  0  0
   -5.2686    2.8864    0.6248 C   0  0  0  0  0  0  0  0  0  0  0  0
   -6.2278    1.0836    1.9230 C   0  0  0  0  0  0  0  0  0  0  0  0
   -6.5089    3.1121    0.0206 C   0  0  0  0  0  0  0  0  0  0  0  0
   -7.4548    1.3054    1.3155 C   0  0  0  0  0  0  0  0  0  0  0  0
   -7.6250    2.3762    0.4279 C   0  0  0  0  0  0  0  0  0  0  0  0
   -8.9618    2.7545    0.0317 C   0  0  0  0  0  0  0  0  0  0  0  0
   -9.3212    3.4391   -1.0984 N   0  0  0  0  0  0  0  0  0  0  0  0
  -10.0875    2.5002    0.7818 C   0  0  0  0  0  0  0  0  0  0  0  0
  -10.6504    3.5231   -1.1206 N   0  0  0  0  0  0  0  0  0  0  0  0
  -11.1074    2.9117   -0.0145 N   0  0  0  0  0  0  0  0  0  0  0  0
  -12.4862    2.5010    0.1113 C   0  0  0  0  0  0  0  0  0  0  0  0
  -13.2046    3.1394    1.2963 C   0  0  0  0  0  0  0  0  0  0  0  0
  -14.5865    2.5107    1.4683 C   0  0  0  0  0  0  0  0  0  0  0  0
  -15.3423    3.1274    2.6422 C   0  0  0  0  0  0  0  0  0  0  0  0
  -16.7275    2.5046    2.7731 C   0  0  0  0  0  0  0  0  0  0  0  0
  -17.5136    3.1308    3.9228 C   0  0  0  0  0  0  0  0  0  0  0  0
  -18.9247    2.5831    3.9832 C   0  0  0  0  0  0  0  0  0  0  0  0
  -19.3846    1.7446    3.2094 O   0  0  0  0  0  0  0  0  0  0  0  0
  -19.6729    3.1214    5.0023 N   0  0  0  0  0  0  0  0  0  0  0  0
  -20.9555    2.5519    5.1632 O   0  0  0  0  0  0  0  0  0  0  0  0
    3.6702    0.8609   -0.1672 H   0  0  0  0  0  0  0  0  0  0  0  0
    0.9884   -2.5818   -0.3450 H   0  0  0  0  0  0  0  0  0  0  0  0
    2.3755    0.2682    2.3183 H   0  0  0  0  0  0  0  0  0  0  0  0
    1.0335    2.0999   -0.7698 H   0  0  0  0  0  0  0  0  0  0  0  0
    2.4550    1.9126   -1.6999 H   0  0  0  0  0  0  0  0  0  0  0  0
    2.4650    3.1160   -0.4017 H   0  0  0  0  0  0  0  0  0  0  0  0
    1.4663   -3.4276   -2.6599 H   0  0  0  0  0  0  0  0  0  0  0  0
    2.8856   -2.3763   -2.7596 H   0  0  0  0  0  0  0  0  0  0  0  0
    4.7623    2.0191    1.9958 H   0  0  0  0  0  0  0  0  0  0  0  0
    1.3205   -5.0072   -0.3987 H   0  0  0  0  0  0  0  0  0  0  0  0
    2.0785   -4.6183    1.6667 H   0  0  0  0  0  0  0  0  0  0  0  0
    4.2119   -3.7514   -1.9264 H   0  0  0  0  0  0  0  0  0  0  0  0
    4.8489   -4.5588   -0.5569 H   0  0  0  0  0  0  0  0  0  0  0  0
    4.7796   -2.7794   -0.5548 H   0  0  0  0  0  0  0  0  0  0  0  0
    0.0614   -1.3112   -2.4222 H   0  0  0  0  0  0  0  0  0  0  0  0
    0.9262   -1.4775   -3.9563 H   0  0  0  0  0  0  0  0  0  0  0  0
    1.5452   -0.3748   -2.7333 H   0  0  0  0  0  0  0  0  0  0  0  0
    0.7658    2.5138    1.0234 H   0  0  0  0  0  0  0  0  0  0  0  0
    3.7754    1.4661    4.5262 H   0  0  0  0  0  0  0  0  0  0  0  0
    4.5145   -0.9891    1.8398 H   0  0  0  0  0  0  0  0  0  0  0  0
    6.0829   -0.1503    2.0374 H   0  0  0  0  0  0  0  0  0  0  0  0
    5.1575    0.0637    0.6219 H   0  0  0  0  0  0  0  0  0  0  0  0
    2.6453   -1.9165    1.4681 H   0  0  0  0  0  0  0  0  0  0  0  0
    4.9482   -3.7832    1.4521 H   0  0  0  0  0  0  0  0  0  0  0  0
    0.3417    0.3462    2.1747 H   0  0  0  0  0  0  0  0  0  0  0  0
   -1.0075    1.3981    1.7744 H   0  0  0  0  0  0  0  0  0  0  0  0
    3.8073   -6.3722    2.5475 H   0  0  0  0  0  0  0  0  0  0  0  0
    5.4926   -5.9906    2.1866 H   0  0  0  0  0  0  0  0  0  0  0  0
    4.3233   -6.1504    0.8700 H   0  0  0  0  0  0  0  0  0  0  0  0
    0.5011    4.1212    4.3486 H   0  0  0  0  0  0  0  0  0  0  0  0
    4.3601    3.5685    4.8127 H   0  0  0  0  0  0  0  0  0  0  0  0
    3.7806   -1.3887    3.7039 H   0  0  0  0  0  0  0  0  0  0  0  0
    4.1413   -1.9710    5.2571 H   0  0  0  0  0  0  0  0  0  0  0  0
    7.2774    0.5377    5.3162 H   0  0  0  0  0  0  0  0  0  0  0  0
    7.2126   -0.0178    3.6567 H   0  0  0  0  0  0  0  0  0  0  0  0
    7.2425   -1.1613    5.0277 H   0  0  0  0  0  0  0  0  0  0  0  0
    5.9371   -3.2449    4.7404 H   0  0  0  0  0  0  0  0  0  0  0  0
   -1.8126    5.0963    2.6188 H   0  0  0  0  0  0  0  0  0  0  0  0
   -0.3756    5.9612    3.0683 H   0  0  0  0  0  0  0  0  0  0  0  0
   -1.5754    5.6064    4.3203 H   0  0  0  0  0  0  0  0  0  0  0  0
   -0.9655   -0.8629    3.5524 H   0  0  0  0  0  0  0  0  0  0  0  0
   -2.3531    0.0785    3.3425 H   0  0  0  0  0  0  0  0  0  0  0  0
   -1.7386   -0.2325    4.9962 H   0  0  0  0  0  0  0  0  0  0  0  0
    6.3528    3.8676    6.3067 H   0  0  0  0  0  0  0  0  0  0  0  0
    4.1582    0.0903    7.9468 H   0  0  0  0  0  0  0  0  0  0  0  0
    3.4249   -0.9899    6.7896 H   0  0  0  0  0  0  0  0  0  0  0  0
    3.3329    0.7905    6.5558 H   0  0  0  0  0  0  0  0  0  0  0  0
    6.1742   -2.3198    1.8445 H   0  0  0  0  0  0  0  0  0  0  0  0
    6.9560   -3.6875    2.5963 H   0  0  0  0  0  0  0  0  0  0  0  0
    7.3643   -2.0770    3.1012 H   0  0  0  0  0  0  0  0  0  0  0  0
   -0.2324    2.0248    5.9385 H   0  0  0  0  0  0  0  0  0  0  0  0
   -2.7916    3.7420    5.0618 H   0  0  0  0  0  0  0  0  0  0  0  0
   -3.0469    2.0365    5.0666 H   0  0  0  0  0  0  0  0  0  0  0  0
    1.2898   -0.3754    5.9655 H   0  0  0  0  0  0  0  0  0  0  0  0
    2.2226   -0.0692    4.5068 H   0  0  0  0  0  0  0  0  0  0  0  0
    0.7513   -1.0200    4.4123 H   0  0  0  0  0  0  0  0  0  0  0  0
    6.3205    5.0465    1.6193 H   0  0  0  0  0  0  0  0  0  0  0  0
    5.2602    5.8590    4.6879 H   0  0  0  0  0  0  0  0  0  0  0  0
    8.2650    5.2922    5.3225 H   0  0  0  0  0  0  0  0  0  0  0  0
    7.1938    6.1559    3.4701 H   0  0  0  0  0  0  0  0  0  0  0  0
    8.5251    5.2640    2.8100 H   0  0  0  0  0  0  0  0  0  0  0  0
    7.4314    2.3757    2.5759 H   0  0  0  0  0  0  0  0  0  0  0  0
    8.0588    3.3759    1.2570 H   0  0  0  0  0  0  0  0  0  0  0  0
    6.4620    2.6578    1.1419 H   0  0  0  0  0  0  0  0  0  0  0  0
   -4.0512    0.9941    3.1798 H   0  0  0  0  0  0  0  0  0  0  0  0
   -3.0622    1.7019    1.8854 H   0  0  0  0  0  0  0  0  0  0  0  0
   -4.8294    4.3207    4.6830 H   0  0  0  0  0  0  0  0  0  0  0  0
   -5.2638    2.6036    4.7859 H   0  0  0  0  0  0  0  0  0  0  0  0
   -5.8095    3.6154    3.4325 H   0  0  0  0  0  0  0  0  0  0  0  0
    9.5240    2.0387    6.2503 H   0  0  0  0  0  0  0  0  0  0  0  0
    8.1146    2.8676    6.8564 H   0  0  0  0  0  0  0  0  0  0  0  0
    9.6222    3.7754    6.6164 H   0  0  0  0  0  0  0  0  0  0  0  0
   10.3291    2.3166    4.1170 H   0  0  0  0  0  0  0  0  0  0  0  0
   10.4894    4.0827    4.2289 H   0  0  0  0  0  0  0  0  0  0  0  0
    9.5747    3.3121    2.9207 H   0  0  0  0  0  0  0  0  0  0  0  0
   -4.4207    3.5184    0.3702 H   0  0  0  0  0  0  0  0  0  0  0  0
   -6.1478    0.3052    2.6782 H   0  0  0  0  0  0  0  0  0  0  0  0
   -6.6099    3.9123   -0.7101 H   0  0  0  0  0  0  0  0  0  0  0  0
   -8.2900    0.6666    1.5919 H   0  0  0  0  0  0  0  0  0  0  0  0
  -10.2456    2.0199    1.7355 H   0  0  0  0  0  0  0  0  0  0  0  0
  -12.4622    1.4098    0.2306 H   0  0  0  0  0  0  0  0  0  0  0  0
  -13.0000    2.7207   -0.8281 H   0  0  0  0  0  0  0  0  0  0  0  0
  -13.2948    4.2207    1.1368 H   0  0  0  0  0  0  0  0  0  0  0  0
  -12.6261    3.0030    2.2188 H   0  0  0  0  0  0  0  0  0  0  0  0
  -14.4797    1.4298    1.6298 H   0  0  0  0  0  0  0  0  0  0  0  0
  -15.1640    2.6409    0.5449 H   0  0  0  0  0  0  0  0  0  0  0  0
  -15.4363    4.2088    2.4910 H   0  0  0  0  0  0  0  0  0  0  0  0
  -14.7775    2.9738    3.5696 H   0  0  0  0  0  0  0  0  0  0  0  0
  -16.6362    1.4247    2.9396 H   0  0  0  0  0  0  0  0  0  0  0  0
  -17.2776    2.6279    1.8326 H   0  0  0  0  0  0  0  0  0  0  0  0
  -17.5822    4.2151    3.7814 H   0  0  0  0  0  0  0  0  0  0  0  0
  -17.0209    2.9387    4.9079 H   0  0  0  0  0  0  0  0  0  0  0  0
  -19.2631    3.5408    5.8220 H   0  0  0  0  0  0  0  0  0  0  0  0
  -21.0073    1.9107    4.4201 H   0  0  0  0  0  0  0  0  0  0  0  0
  1  2  2  0  0  0  0
  2  3  1  0  0  0  0
  2  4  1  0  0  0  0
  3  5  1  0  0  0  0
  4  6  1  1  0  0  0
  4  7  1  0  0  0  0
  4 78  1  0  0  0  0
  5  8  1  1  0  0  0
  5  9  1  0  0  0  0
  5 79  1  0  0  0  0
  6 10  1  0  0  0  0
  6 11  1  1  0  0  0
  6 80  1  0  0  0  0
  7 81  1  0  0  0  0
  7 82  1  0  0  0  0
  7 83  1  0  0  0  0
  8 12  1  0  0  0  0
  8 13  1  1  0  0  0
  8 14  1  0  0  0  0
  9 15  1  0  0  0  0
  9 84  1  0  0  0  0
  9 85  1  0  0  0  0
 11 17  1  1  0  0  0
 11 18  1  0  0  0  0
 11 86  1  0  0  0  0
 12 87  1  0  0  0  0
 13 20  1  1  0  0  0
 13 19  1  0  0  0  0
 13 88  1  0  0  0  0
 14 89  1  0  0  0  0
 14 90  1  0  0  0  0
 14 91  1  0  0  0  0
 15 92  1  0  0  0  0
 15 93  1  0  0  0  0
 15 94  1  0  0  0  0
 16 10  1  0  0  0  0
 16 21  1  0  0  0  0
 16 22  1  0  0  0  0
 16 95  1  6  0  0  0
 17 23  1  0  0  0  0
 17 24  1  1  0  0  0
 17 96  1  0  0  0  0
 18 97  1  0  0  0  0
 18 98  1  0  0  0  0
 18 99  1  0  0  0  0
 19100  1  0  0  0  0
 20 25  1  0  0  0  0
 20 26  1  0  0  0  0
 20101  1  6  0  0  0
 21 27  1  0  0  0  0
 22 28  1  0  0  0  0
 22102  1  0  0  0  0
 22103  1  0  0  0  0
 24 30  1  1  0  0  0
 24 31  1  0  0  0  0
 24 32  1  0  0  0  0
 25 33  2  0  0  0  0
 25 34  1  0  0  0  0
 26104  1  0  0  0  0
 26105  1  0  0  0  0
 26106  1  0  0  0  0
 27 35  1  1  0  0  0
 27 36  1  0  0  0  0
 27107  1  0  0  0  0
 28 37  1  0  0  0  0
 28 38  1  0  0  0  0
 28 35  1  1  0  0  0
 29 23  1  0  0  0  0
 29 39  1  0  0  0  0
 29 40  1  1  0  0  0
 29108  1  0  0  0  0
 30 41  1  0  0  0  0
 31 34  1  0  0  0  0
 31109  1  0  0  0  0
 31110  1  0  0  0  0
 32111  1  0  0  0  0
 32112  1  0  0  0  0
 32113  1  0  0  0  0
 34 42  1  0  0  0  0
 34114  1  1  0  0  0
 35 43  1  1  0  0  0
 35 44  1  0  0  0  0
 36115  1  0  0  0  0
 36116  1  0  0  0  0
 36117  1  0  0  0  0
 37 45  1  0  0  0  0
 38118  1  0  0  0  0
 38119  1  0  0  0  0
 38120  1  0  0  0  0
 39 46  1  0  0  0  0
 40 48  1  6  0  0  0
 40 47  1  0  0  0  0
 40121  1  0  0  0  0
 41122  1  0  0  0  0
 41123  1  0  0  0  0
 41124  1  0  0  0  0
 42125  1  0  0  0  0
 42126  1  0  0  0  0
 42127  1  0  0  0  0
 43128  1  0  0  0  0
 44 49  1  0  0  0  0
 44129  1  0  0  0  0
 44130  1  0  0  0  0
 45131  1  0  0  0  0
 45132  1  0  0  0  0
 45133  1  0  0  0  0
 46 50  1  0  0  0  0
 46 51  1  0  0  0  0
 46134  1  6  0  0  0
 47135  1  0  0  0  0
 48 50  1  0  0  0  0
 48 52  1  0  0  0  0
 48136  1  1  0  0  0
 49 53  1  0  0  0  0
 49 54  1  0  0  0  0
 50137  1  0  0  0  0
 50138  1  0  0  0  0
 51139  1  0  0  0  0
 51140  1  0  0  0  0
 51141  1  0  0  0  0
 52 55  1  0  0  0  0
 52 56  1  0  0  0  0
 53 57  1  0  0  0  0
 53142  1  0  0  0  0
 53143  1  0  0  0  0
 54144  1  0  0  0  0
 54145  1  0  0  0  0
 54146  1  0  0  0  0
 55147  1  0  0  0  0
 55148  1  0  0  0  0
 55149  1  0  0  0  0
 56150  1  0  0  0  0
 56151  1  0  0  0  0
 56152  1  0  0  0  0
 57 58  2  0  0  0  0
 57 59  1  0  0  0  0
 58 60  1  0  0  0  0
 58153  1  0  0  0  0
 59 61  2  0  0  0  0
 59154  1  0  0  0  0
 60 62  2  0  0  0  0
 60155  1  0  0  0  0
 61 62  1  0  0  0  0
 61156  1  0  0  0  0
 62 63  1  0  0  0  0
 63 64  1  0  0  0  0
 63 65  2  0  0  0  0
 64 66  2  0  0  0  0
 65 67  1  0  0  0  0
 65157  1  0  0  0  0
 66 67  1  0  0  0  0
 67 68  1  0  0  0  0
 68 69  1  0  0  0  0
 68158  1  0  0  0  0
 68159  1  0  0  0  0
 69 70  1  0  0  0  0
 69160  1  0  0  0  0
 69161  1  0  0  0  0
 70 71  1  0  0  0  0
 70162  1  0  0  0  0
 70163  1  0  0  0  0
 71 72  1  0  0  0  0
 71164  1  0  0  0  0
 71165  1  0  0  0  0
 72 73  1  0  0  0  0
 72166  1  0  0  0  0
 72167  1  0  0  0  0
 73 74  1  0  0  0  0
 73168  1  0  0  0  0
 73169  1  0  0  0  0
 74 75  2  0  0  0  0
 74 76  1  0  0  0  0
 76 77  1  0  0  0  0
 76170  1  0  0  0  0
 77171  1  0  0  0  0
M  END
>  <Molecule Name>
2337321

>  <MolRegNo>
2337321

>  <m>
=

>  <Value>
1840

>  <Unit>
nM

>  <Type>
IC50

>  <pValue>
5.74

>  <Ligand Efficiency>
0

>  <Binding Efficiency>
5.25

>  <Surface Efficiency>
0

>  <Assay Index>
977532

>  <Assay Category>


>  <Assay Organism>
Homo sapiens

>  <Target ID>
10869

>  <Target Name>
Histone deacetylase 8

>  <Target Organism>
Homo sapiens

>  <Target Description>
Target is a single protein chain

>  <Sequence Accession>
Q9BY41

>  <Reference>
Bioorg. Med. Chem. 23 (24), 7543-7564 (2015)

>  <Pubmed ID>
26585275

>  <DOI>
10.1016/j.bmc.2015.10.045

$$$$
2337335
 OpenBabel03252423453D

168172  0  0  0  0  0  0  0  0999 V2000
    0.0434    4.8947    1.9504 O   0  0  0  0  0  0  0  0  0  0  0  0
   -0.4408    3.7738    1.9198 C   0  0  0  0  0  0  0  0  0  0  0  0
   -1.7707    3.5138    1.7709 O   0  0  0  0  0  0  0  0  0  0  0  0
    0.3704    2.4949    2.0428 C   0  0  2  0  0  0  0  0  0  0  0  0
   -2.6579    4.6303    1.4654 C   0  0  2  0  0  0  0  0  0  0  0  0
    0.9850    2.4305    3.5361 C   0  0  2  0  0  0  0  0  0  0  0  0
    1.2124    2.3815    0.7701 C   0  0  0  0  0  0  0  0  0  0  0  0
   -4.0603    4.3634    2.1558 C   0  0  2  0  0  0  0  0  0  0  0  0
   -2.7645    4.7677   -0.0750 C   0  0  0  0  0  0  0  0  0  0  0  0
    2.3838    2.2831    3.5388 O   0  0  0  0  0  0  0  0  0  0  0  0
    0.3852    1.2895    4.4807 C   0  0  1  0  0  0  0  0  0  0  0  0
   -5.0024    5.3566    1.6964 O   0  0  0  0  0  0  0  0  0  0  0  0
   -4.0175    4.4764    3.7652 C   0  0  2  0  0  0  0  0  0  0  0  0
   -4.6196    3.0235    1.6281 C   0  0  0  0  0  0  0  0  0  0  0  0
   -1.4443    5.0732   -0.7717 C   0  0  0  0  0  0  0  0  0  0  0  0
    3.1850    3.3931    3.1692 C   0  0  1  0  0  0  0  0  0  0  0  0
    0.5223    1.4249    6.1887 C   0  0  2  0  0  0  0  0  0  0  0  0
   -1.0597    1.2020    3.9920 C   0  0  0  0  0  0  0  0  0  0  0  0
   -2.6864    4.6652    4.2424 O   0  0  0  0  0  0  0  0  0  0  0  0
   -4.7096    3.3276    4.5465 C   0  0  1  0  0  0  0  0  0  0  0  0
    3.2304    3.5609    1.7751 O   0  0  0  0  0  0  0  0  0  0  0  0
    2.8057    4.6588    3.8873 C   0  0  0  0  0  0  0  0  0  0  0  0
    1.9134    1.1077    6.7033 O   0  0  0  0  0  0  0  0  0  0  0  0
   -0.8348    0.6621    6.8784 C   0  0  1  0  0  0  0  0  0  0  0  0
   -4.1340    2.9957    5.9493 C   0  0  0  0  0  0  0  0  0  0  0  0
   -6.2240    3.5342    4.6696 C   0  0  0  0  0  0  0  0  0  0  0  0
    4.0417    4.6245    1.2662 C   0  0  1  0  0  0  0  0  0  0  0  0
    3.7845    5.7694    3.5831 C   0  0  1  0  0  0  0  0  0  0  0  0
    2.3816    1.3519    8.1065 C   0  0  2  0  0  0  0  0  0  0  0  0
   -0.5300    0.4853    8.2854 O   0  0  0  0  0  0  0  0  0  0  0  0
   -2.0436    1.7496    6.7303 C   0  0  0  0  0  0  0  0  0  0  0  0
   -1.1319   -0.7614    6.3135 C   0  0  0  0  0  0  0  0  0  0  0  0
   -4.1617    3.8427    6.8480 O   0  0  0  0  0  0  0  0  0  0  0  0
   -3.5507    1.5596    6.2566 C   0  0  2  0  0  0  0  0  0  0  0  0
    3.7294    5.9425    2.0284 C   0  0  2  0  0  0  0  0  0  0  0  0
    5.4704    4.1132    1.1108 C   0  0  0  0  0  0  0  0  0  0  0  0
    3.4641    6.9705    4.3270 O   0  0  0  0  0  0  0  0  0  0  0  0
    5.1832    5.4259    4.1499 C   0  0  0  0  0  0  0  0  0  0  0  0
    2.1049    2.6403    8.6850 O   0  0  0  0  0  0  0  0  0  0  0  0
    3.9295    1.0275    8.5705 C   0  0  2  0  0  0  0  0  0  0  0  0
   -1.4432   -0.2488    9.0977 C   0  0  0  0  0  0  0  0  0  0  0  0
   -3.9629    0.5755    5.1467 C   0  0  0  0  0  0  0  0  0  0  0  0
    2.3476    6.2635    1.6961 O   0  0  0  0  0  0  0  0  0  0  0  0
    4.5933    7.1392    1.6068 C   0  0  0  0  0  0  0  0  0  0  0  0
    2.1241    7.4398    4.3348 C   0  0  0  0  0  0  0  0  0  0  0  0
    3.0409    3.6992    8.4472 C   0  0  1  0  0  0  0  0  0  0  0  0
    4.0548    1.0597   10.0285 O   0  0  0  0  0  0  0  0  0  0  0  0
    5.0357    2.0016    8.0985 C   0  0  2  0  0  0  0  0  0  0  0  0
    4.5174    7.5783    0.1925 N   0  0  0  0  0  0  0  0  0  0  0  0
    4.5586    3.4130    8.5211 C   0  0  0  0  0  0  0  0  0  0  0  0
    2.6469    4.3349    7.1553 C   0  0  0  0  0  0  0  0  0  0  0  0
    5.6424    1.9054    6.7544 N   0  0  0  0  0  0  0  0  0  0  0  0
    3.1576    8.0221   -0.1573 C   0  0  0  0  0  0  0  0  0  0  0  0
    5.4367    8.7102    0.0535 C   0  0  0  0  0  0  0  0  0  0  0  0
    4.7830    1.7173    5.6019 C   0  0  0  0  0  0  0  0  0  0  0  0
    6.8817    1.1455    6.6045 C   0  0  0  0  0  0  0  0  0  0  0  0
    4.4177    0.3371    5.0751 C   0  0  0  0  0  0  0  0  0  0  0  0
    3.9996   -0.7250    5.8697 C   0  0  0  0  0  0  0  0  0  0  0  0
    4.2554    0.1591    3.7033 C   0  0  0  0  0  0  0  0  0  0  0  0
    3.3378   -1.8356    5.3732 C   0  0  0  0  0  0  0  0  0  0  0  0
    3.5757   -0.9483    3.1713 C   0  0  0  0  0  0  0  0  0  0  0  0
    3.1057   -1.9522    4.0158 C   0  0  0  0  0  0  0  0  0  0  0  0
    2.3697   -3.0969    3.5679 C   0  0  0  0  0  0  0  0  0  0  0  0
    2.1347   -4.1889    4.3625 N   0  0  0  0  0  0  0  0  0  0  0  0
    1.7525   -3.2735    2.3574 C   0  0  0  0  0  0  0  0  0  0  0  0
    1.4099   -5.0492    3.6684 N   0  0  0  0  0  0  0  0  0  0  0  0
    1.1588   -4.4864    2.4780 N   0  0  0  0  0  0  0  0  0  0  0  0
    0.2290   -5.1211    1.5621 C   0  0  0  0  0  0  0  0  0  0  0  0
   -1.1506   -5.2098    2.2007 C   0  0  0  0  0  0  0  0  0  0  0  0
   -2.1679   -5.7537    1.2090 C   0  0  0  0  0  0  0  0  0  0  0  0
   -3.5433   -5.8494    1.8610 C   0  0  0  0  0  0  0  0  0  0  0  0
   -4.5879   -6.3686    0.8795 C   0  0  0  0  0  0  0  0  0  0  0  0
   -5.9563   -6.4296    1.5164 C   0  0  0  0  0  0  0  0  0  0  0  0
   -6.1850   -6.1695    2.6955 O   0  0  0  0  0  0  0  0  0  0  0  0
   -6.9549   -6.8029    0.6515 N   0  0  0  0  0  0  0  0  0  0  0  0
   -8.2294   -6.9827    1.2391 O   0  0  0  0  0  0  0  0  0  0  0  0
   -0.3101    1.6663    1.8746 H   0  0  0  0  0  0  0  0  0  0  0  0
   -2.2562    5.5719    1.8614 H   0  0  0  0  0  0  0  0  0  0  0  0
    0.6948    3.3417    4.0687 H   0  0  0  0  0  0  0  0  0  0  0  0
    1.5510    3.3582    0.3964 H   0  0  0  0  0  0  0  0  0  0  0  0
    0.6007    2.0073   -0.0566 H   0  0  0  0  0  0  0  0  0  0  0  0
    2.0499    1.6862    0.8788 H   0  0  0  0  0  0  0  0  0  0  0  0
   -3.4769    5.5603   -0.3276 H   0  0  0  0  0  0  0  0  0  0  0  0
   -3.1342    3.8360   -0.5156 H   0  0  0  0  0  0  0  0  0  0  0  0
    0.8921    0.3468    4.2414 H   0  0  0  0  0  0  0  0  0  0  0  0
   -4.7067    6.2293    2.0144 H   0  0  0  0  0  0  0  0  0  0  0  0
   -4.5318    5.4065    4.0425 H   0  0  0  0  0  0  0  0  0  0  0  0
   -4.7847    3.0534    0.5463 H   0  0  0  0  0  0  0  0  0  0  0  0
   -5.6101    2.7995    2.0318 H   0  0  0  0  0  0  0  0  0  0  0  0
   -3.9499    2.1848    1.8443 H   0  0  0  0  0  0  0  0  0  0  0  0
   -0.9592    5.9523   -0.3388 H   0  0  0  0  0  0  0  0  0  0  0  0
   -1.6175    5.2685   -1.8346 H   0  0  0  0  0  0  0  0  0  0  0  0
   -0.7585    4.2230   -0.7128 H   0  0  0  0  0  0  0  0  0  0  0  0
    4.1821    3.0990    3.4580 H   0  0  0  0  0  0  0  0  0  0  0  0
    0.4184    2.4901    6.4186 H   0  0  0  0  0  0  0  0  0  0  0  0
   -1.5060    2.1870    3.8549 H   0  0  0  0  0  0  0  0  0  0  0  0
   -1.7108    0.7047    4.6588 H   0  0  0  0  0  0  0  0  0  0  0  0
   -1.1711    0.6049    3.0847 H   0  0  0  0  0  0  0  0  0  0  0  0
   -2.0923    4.0728    3.7640 H   0  0  0  0  0  0  0  0  0  0  0  0
   -4.5840    2.4488    3.9377 H   0  0  0  0  0  0  0  0  0  0  0  0
    2.7434    4.5004    4.9350 H   0  0  0  0  0  0  0  0  0  0  0  0
    1.7934    4.9631    3.6248 H   0  0  0  0  0  0  0  0  0  0  0  0
   -6.4691    4.3764    5.3245 H   0  0  0  0  0  0  0  0  0  0  0  0
   -6.6935    2.6391    5.0936 H   0  0  0  0  0  0  0  0  0  0  0  0
   -6.6917    3.7226    3.6984 H   0  0  0  0  0  0  0  0  0  0  0  0
    3.6751    4.7547    0.2401 H   0  0  0  0  0  0  0  0  0  0  0  0
    1.8040    0.6470    8.7075 H   0  0  0  0  0  0  0  0  0  0  0  0
   -1.6639    2.5521    6.0851 H   0  0  0  0  0  0  0  0  0  0  0  0
   -2.1087    2.2517    7.7069 H   0  0  0  0  0  0  0  0  0  0  0  0
   -0.4558   -1.5147    6.7260 H   0  0  0  0  0  0  0  0  0  0  0  0
   -1.0848   -0.9054    5.2340 H   0  0  0  0  0  0  0  0  0  0  0  0
   -2.1454   -1.0718    6.5954 H   0  0  0  0  0  0  0  0  0  0  0  0
   -4.1056    1.2156    7.1392 H   0  0  0  0  0  0  0  0  0  0  0  0
    5.8963    3.6986    2.0245 H   0  0  0  0  0  0  0  0  0  0  0  0
    6.1417    4.8722    0.7071 H   0  0  0  0  0  0  0  0  0  0  0  0
    5.4671    3.2655    0.4110 H   0  0  0  0  0  0  0  0  0  0  0  0
    5.5908    4.4686    3.8374 H   0  0  0  0  0  0  0  0  0  0  0  0
    5.1527    5.3923    5.2461 H   0  0  0  0  0  0  0  0  0  0  0  0
    5.9202    6.1922    3.8966 H   0  0  0  0  0  0  0  0  0  0  0  0
    4.2634    0.0189    8.4040 H   0  0  0  0  0  0  0  0  0  0  0  0
   -0.8691   -0.7010    9.9138 H   0  0  0  0  0  0  0  0  0  0  0  0
   -1.9524   -1.0760    8.5958 H   0  0  0  0  0  0  0  0  0  0  0  0
   -2.1871    0.4219    9.5303 H   0  0  0  0  0  0  0  0  0  0  0  0
   -3.5781    0.8305    4.1540 H   0  0  0  0  0  0  0  0  0  0  0  0
   -5.0551    0.5800    5.0292 H   0  0  0  0  0  0  0  0  0  0  0  0
   -3.6835   -0.4558    5.3463 H   0  0  0  0  0  0  0  0  0  0  0  0
    1.8120    5.4458    1.6328 H   0  0  0  0  0  0  0  0  0  0  0  0
    4.3388    7.9937    2.2478 H   0  0  0  0  0  0  0  0  0  0  0  0
    5.6371    6.8860    1.8226 H   0  0  0  0  0  0  0  0  0  0  0  0
    2.1019    8.3597    4.9240 H   0  0  0  0  0  0  0  0  0  0  0  0
    1.4517    6.7274    4.8214 H   0  0  0  0  0  0  0  0  0  0  0  0
    1.7679    7.6918    3.3373 H   0  0  0  0  0  0  0  0  0  0  0  0
    2.8402    4.4563    9.2168 H   0  0  0  0  0  0  0  0  0  0  0  0
    3.1406    1.1559   10.3845 H   0  0  0  0  0  0  0  0  0  0  0  0
    5.9039    1.8571    8.7664 H   0  0  0  0  0  0  0  0  0  0  0  0
    4.8228    3.5199    9.5876 H   0  0  0  0  0  0  0  0  0  0  0  0
    5.1499    4.2081    8.0425 H   0  0  0  0  0  0  0  0  0  0  0  0
    2.5077    3.5346    6.4369 H   0  0  0  0  0  0  0  0  0  0  0  0
    3.3881    5.0611    6.8139 H   0  0  0  0  0  0  0  0  0  0  0  0
    1.6739    4.8283    7.2273 H   0  0  0  0  0  0  0  0  0  0  0  0
    2.5100    7.1670   -0.3803 H   0  0  0  0  0  0  0  0  0  0  0  0
    3.1557    8.6192   -1.0741 H   0  0  0  0  0  0  0  0  0  0  0  0
    2.6974    8.6265    0.6355 H   0  0  0  0  0  0  0  0  0  0  0  0
    6.4590    8.3920    0.2843 H   0  0  0  0  0  0  0  0  0  0  0  0
    5.1704    9.5320    0.7291 H   0  0  0  0  0  0  0  0  0  0  0  0
    5.4397    9.0844   -0.9738 H   0  0  0  0  0  0  0  0  0  0  0  0
    5.3200    2.2325    4.8004 H   0  0  0  0  0  0  0  0  0  0  0  0
    3.8732    2.2887    5.7445 H   0  0  0  0  0  0  0  0  0  0  0  0
    7.3829    1.4386    5.6690 H   0  0  0  0  0  0  0  0  0  0  0  0
    6.7089    0.0665    6.5565 H   0  0  0  0  0  0  0  0  0  0  0  0
    7.6088    1.3427    7.3979 H   0  0  0  0  0  0  0  0  0  0  0  0
    4.0671   -0.7294    6.9270 H   0  0  0  0  0  0  0  0  0  0  0  0
    4.5631    0.9490    3.0140 H   0  0  0  0  0  0  0  0  0  0  0  0
    2.9516   -2.5646    6.0849 H   0  0  0  0  0  0  0  0  0  0  0  0
    3.3826   -0.9669    2.1077 H   0  0  0  0  0  0  0  0  0  0  0  0
    1.6478   -2.6587    1.4867 H   0  0  0  0  0  0  0  0  0  0  0  0
    0.6419   -6.1030    1.3363 H   0  0  0  0  0  0  0  0  0  0  0  0
    0.2104   -4.5209    0.6549 H   0  0  0  0  0  0  0  0  0  0  0  0
   -1.4687   -4.2201    2.5555 H   0  0  0  0  0  0  0  0  0  0  0  0
   -1.1164   -5.8590    3.0858 H   0  0  0  0  0  0  0  0  0  0  0  0
   -1.8507   -6.7429    0.8590 H   0  0  0  0  0  0  0  0  0  0  0  0
   -2.2157   -5.0950    0.3338 H   0  0  0  0  0  0  0  0  0  0  0  0
   -3.8438   -4.8617    2.2329 H   0  0  0  0  0  0  0  0  0  0  0  0
   -3.4924   -6.5112    2.7353 H   0  0  0  0  0  0  0  0  0  0  0  0
   -4.3144   -7.3732    0.5363 H   0  0  0  0  0  0  0  0  0  0  0  0
   -4.6426   -5.7070    0.0082 H   0  0  0  0  0  0  0  0  0  0  0  0
   -6.7787   -7.3091   -0.2091 H   0  0  0  0  0  0  0  0  0  0  0  0
   -8.0680   -6.7356    2.1771 H   0  0  0  0  0  0  0  0  0  0  0  0
  1  2  2  0  0  0  0
  2  3  1  0  0  0  0
  2  4  1  0  0  0  0
  3  5  1  0  0  0  0
  4  6  1  1  0  0  0
  4  7  1  0  0  0  0
  4 77  1  0  0  0  0
  5  8  1  1  0  0  0
  5  9  1  0  0  0  0
  5 78  1  0  0  0  0
  6 10  1  0  0  0  0
  6 11  1  1  0  0  0
  6 79  1  0  0  0  0
  7 80  1  0  0  0  0
  7 81  1  0  0  0  0
  7 82  1  0  0  0  0
  8 12  1  0  0  0  0
  8 13  1  1  0  0  0
  8 14  1  0  0  0  0
  9 15  1  0  0  0  0
  9 83  1  0  0  0  0
  9 84  1  0  0  0  0
 11 17  1  1  0  0  0
 11 18  1  0  0  0  0
 11 85  1  0  0  0  0
 12 86  1  0  0  0  0
 13 20  1  1  0  0  0
 13 19  1  0  0  0  0
 13 87  1  0  0  0  0
 14 88  1  0  0  0  0
 14 89  1  0  0  0  0
 14 90  1  0  0  0  0
 15 91  1  0  0  0  0
 15 92  1  0  0  0  0
 15 93  1  0  0  0  0
 16 21  1  0  0  0  0
 16 22  1  0  0  0  0
 16 10  1  0  0  0  0
 16 94  1  1  0  0  0
 17 23  1  0  0  0  0
 17 24  1  1  0  0  0
 17 95  1  0  0  0  0
 18 96  1  0  0  0  0
 18 97  1  0  0  0  0
 18 98  1  0  0  0  0
 19 99  1  0  0  0  0
 20 25  1  0  0  0  0
 20 26  1  0  0  0  0
 20100  1  6  0  0  0
 21 27  1  0  0  0  0
 22 28  1  0  0  0  0
 22101  1  0  0  0  0
 22102  1  0  0  0  0
 24 30  1  1  0  0  0
 24 31  1  0  0  0  0
 24 32  1  0  0  0  0
 25 33  2  0  0  0  0
 25 34  1  0  0  0  0
 26103  1  0  0  0  0
 26104  1  0  0  0  0
 26105  1  0  0  0  0
 27 35  1  1  0  0  0
 27 36  1  0  0  0  0
 27106  1  0  0  0  0
 28 35  1  6  0  0  0
 28 38  1  0  0  0  0
 28 37  1  0  0  0  0
 29 23  1  0  0  0  0
 29 39  1  0  0  0  0
 29 40  1  1  0  0  0
 29107  1  0  0  0  0
 30 41  1  0  0  0  0
 31 34  1  0  0  0  0
 31108  1  0  0  0  0
 31109  1  0  0  0  0
 32110  1  0  0  0  0
 32111  1  0  0  0  0
 32112  1  0  0  0  0
 34 42  1  0  0  0  0
 34113  1  1  0  0  0
 35 44  1  0  0  0  0
 35 43  1  6  0  0  0
 36114  1  0  0  0  0
 36115  1  0  0  0  0
 36116  1  0  0  0  0
 37 45  1  0  0  0  0
 38117  1  0  0  0  0
 38118  1  0  0  0  0
 38119  1  0  0  0  0
 39 46  1  0  0  0  0
 40 48  1  6  0  0  0
 40 47  1  0  0  0  0
 40120  1  0  0  0  0
 41121  1  0  0  0  0
 41122  1  0  0  0  0
 41123  1  0  0  0  0
 42124  1  0  0  0  0
 42125  1  0  0  0  0
 42126  1  0  0  0  0
 43127  1  0  0  0  0
 44 49  1  0  0  0  0
 44128  1  0  0  0  0
 44129  1  0  0  0  0
 45130  1  0  0  0  0
 45131  1  0  0  0  0
 45132  1  0  0  0  0
 46 50  1  0  0  0  0
 46 51  1  0  0  0  0
 46133  1  1  0  0  0
 47134  1  0  0  0  0
 48 50  1  0  0  0  0
 48 52  1  0  0  0  0
 48135  1  1  0  0  0
 49 53  1  0  0  0  0
 49 54  1  0  0  0  0
 50136  1  0  0  0  0
 50137  1  0  0  0  0
 51138  1  0  0  0  0
 51139  1  0  0  0  0
 51140  1  0  0  0  0
 52 55  1  0  0  0  0
 52 56  1  0  0  0  0
 53141  1  0  0  0  0
 53142  1  0  0  0  0
 53143  1  0  0  0  0
 54144  1  0  0  0  0
 54145  1  0  0  0  0
 54146  1  0  0  0  0
 55 57  1  0  0  0  0
 55147  1  0  0  0  0
 55148  1  0  0  0  0
 56149  1  0  0  0  0
 56150  1  0  0  0  0
 56151  1  0  0  0  0
 57 58  2  0  0  0  0
 57 59  1  0  0  0  0
 58 60  1  0  0  0  0
 58152  1  0  0  0  0
 59 61  2  0  0  0  0
 59153  1  0  0  0  0
 60 62  2  0  0  0  0
 60154  1  0  0  0  0
 61 62  1  0  0  0  0
 61155  1  0  0  0  0
 62 63  1  0  0  0  0
 63 64  1  0  0  0  0
 63 65  2  0  0  0  0
 64 66  2  0  0  0  0
 65 67  1  0  0  0  0
 65156  1  0  0  0  0
 66 67  1  0  0  0  0
 67 68  1  0  0  0  0
 68 69  1  0  0  0  0
 68157  1  0  0  0  0
 68158  1  0  0  0  0
 69 70  1  0  0  0  0
 69159  1  0  0  0  0
 69160  1  0  0  0  0
 70 71  1  0  0  0  0
 70161  1  0  0  0  0
 70162  1  0  0  0  0
 71 72  1  0  0  0  0
 71163  1  0  0  0  0
 71164  1  0  0  0  0
 72 73  1  0  0  0  0
 72165  1  0  0  0  0
 72166  1  0  0  0  0
 73 74  2  0  0  0  0
 73 75  1  0  0  0  0
 75 76  1  0  0  0  0
 75167  1  0  0  0  0
 76168  1  0  0  0  0
M  END
>  <Molecule Name>
2337335

>  <MolRegNo>
2337335

>  <m>
=

>  <Value>
3200

>  <Unit>
nM

>  <Type>
IC50

>  <pValue>
5.5

>  <Ligand Efficiency>
0

>  <Binding Efficiency>
5.1

>  <Surface Efficiency>
0

>  <Assay Index>
977532

>  <Assay Category>


>  <Assay Organism>
Homo sapiens

>  <Target ID>
10869

>  <Target Name>
Histone deacetylase 8

>  <Target Organism>
Homo sapiens

>  <Target Description>
Target is a single protein chain

>  <Sequence Accession>
Q9BY41

>  <Reference>
Bioorg. Med. Chem. 23 (24), 7543-7564 (2015)

>  <Pubmed ID>
26585275

>  <DOI>
10.1016/j.bmc.2015.10.045

$$$$
2337358
 OpenBabel03252423463D

171175  0  0  0  0  0  0  0  0999 V2000
    0.2781    4.8752    1.9740 O   0  0  0  0  0  0  0  0  0  0  0  0
   -0.2145    3.7611    1.9394 C   0  0  0  0  0  0  0  0  0  0  0  0
   -1.5250    3.4739    1.7934 O   0  0  0  0  0  0  0  0  0  0  0  0
    0.6312    2.4728    2.0655 C   0  0  2  0  0  0  0  0  0  0  0  0
   -2.4424    4.5562    1.4729 C   0  0  2  0  0  0  0  0  0  0  0  0
    1.2347    2.4188    3.5606 C   0  0  2  0  0  0  0  0  0  0  0  0
    1.4730    2.3650    0.7920 C   0  0  0  0  0  0  0  0  0  0  0  0
   -3.8535    4.2942    2.1584 C   0  0  2  0  0  0  0  0  0  0  0  0
   -2.5597    4.6861   -0.0678 C   0  0  0  0  0  0  0  0  0  0  0  0
    2.6225    2.2134    3.5803 O   0  0  0  0  0  0  0  0  0  0  0  0
    0.6096    1.2952    4.5050 C   0  0  1  0  0  0  0  0  0  0  0  0
   -4.8018    5.2800    1.6898 O   0  0  0  0  0  0  0  0  0  0  0  0
   -3.8274    4.4205    3.7646 C   0  0  2  0  0  0  0  0  0  0  0  0
   -4.4083    2.9502    1.6343 C   0  0  0  0  0  0  0  0  0  0  0  0
   -1.2447    4.9950   -0.7678 C   0  0  0  0  0  0  0  0  0  0  0  0
    3.4794    3.2686    3.2093 C   0  0  1  0  0  0  0  0  0  0  0  0
    0.7649    1.4132    6.2298 C   0  0  2  0  0  0  0  0  0  0  0  0
   -0.8310    1.2191    3.9987 C   0  0  0  0  0  0  0  0  0  0  0  0
   -2.5021    4.6170    4.2553 O   0  0  0  0  0  0  0  0  0  0  0  0
   -4.5233    3.2757    4.5457 C   0  0  1  0  0  0  0  0  0  0  0  0
    3.4975    3.4705    1.8208 O   0  0  0  0  0  0  0  0  0  0  0  0
    3.2350    4.5397    3.9714 C   0  0  0  0  0  0  0  0  0  0  0  0
    2.1480    1.0419    6.7003 O   0  0  0  0  0  0  0  0  0  0  0  0
   -0.6012    0.6925    6.8963 C   0  0  1  0  0  0  0  0  0  0  0  0
   -3.9470    2.9547    5.9481 C   0  0  0  0  0  0  0  0  0  0  0  0
   -6.0397    3.4678    4.6649 C   0  0  0  0  0  0  0  0  0  0  0  0
    4.4384    4.4236    1.3308 C   0  0  1  0  0  0  0  0  0  0  0  0
    4.3165    5.5563    3.6754 C   0  0  1  0  0  0  0  0  0  0  0  0
    2.6513    1.2250    8.0855 C   0  0  2  0  0  0  0  0  0  0  0  0
   -0.4787    0.2513    8.2623 O   0  0  0  0  0  0  0  0  0  0  0  0
   -1.8161    1.7729    6.6963 C   0  0  0  0  0  0  0  0  0  0  0  0
   -0.9038   -0.7229    6.3110 C   0  0  0  0  0  0  0  0  0  0  0  0
   -3.9952    3.8009    6.8471 O   0  0  0  0  0  0  0  0  0  0  0  0
   -3.3242    1.5371    6.2501 C   0  0  2  0  0  0  0  0  0  0  0  0
    4.2654    5.7461    2.1252 C   0  0  2  0  0  0  0  0  0  0  0  0
    5.7955    3.7467    1.1711 C   0  0  0  0  0  0  0  0  0  0  0  0
    4.1155    6.7607    4.4546 O   0  0  0  0  0  0  0  0  0  0  0  0
    5.6778    5.0856    4.2392 C   0  0  0  0  0  0  0  0  0  0  0  0
    2.3598    2.4880    8.7078 O   0  0  0  0  0  0  0  0  0  0  0  0
    4.1803    0.8950    8.5637 C   0  0  2  0  0  0  0  0  0  0  0  0
   -0.3964    1.0848    9.3846 C   0  0  0  0  0  0  0  0  0  0  0  0
   -3.7256    0.5423    5.1450 C   0  0  0  0  0  0  0  0  0  0  0  0
    2.8987    6.1813    1.8372 O   0  0  0  0  0  0  0  0  0  0  0  0
    5.2409    6.8493    1.6953 C   0  0  0  0  0  0  0  0  0  0  0  0
    2.9036    7.4828    4.3197 C   0  0  0  0  0  0  0  0  0  0  0  0
    3.2780    3.5640    8.4822 C   0  0  1  0  0  0  0  0  0  0  0  0
    4.2750    0.9065   10.0279 O   0  0  0  0  0  0  0  0  0  0  0  0
    5.2753    1.8703    8.1028 C   0  0  2  0  0  0  0  0  0  0  0  0
    5.1487    7.3208    0.2953 N   0  0  0  0  0  0  0  0  0  0  0  0
    4.7960    3.2765    8.5373 C   0  0  0  0  0  0  0  0  0  0  0  0
    2.8618    4.2352    7.2141 C   0  0  0  0  0  0  0  0  0  0  0  0
    5.8503    1.7546    6.7500 N   0  0  0  0  0  0  0  0  0  0  0  0
    3.8138    7.8627   -0.0045 C   0  0  0  0  0  0  0  0  0  0  0  0
    6.1435    8.3813    0.1329 C   0  0  0  0  0  0  0  0  0  0  0  0
    4.9672    1.5602    5.6164 C   0  0  0  0  0  0  0  0  0  0  0  0
    7.0711    0.9701    6.5846 C   0  0  0  0  0  0  0  0  0  0  0  0
    4.5508    0.1855    5.1070 C   0  0  0  0  0  0  0  0  0  0  0  0
    4.1111   -0.8614    5.9104 C   0  0  0  0  0  0  0  0  0  0  0  0
    4.3575    0.0159    3.7268 C   0  0  0  0  0  0  0  0  0  0  0  0
    3.4244   -1.9551    5.4194 C   0  0  0  0  0  0  0  0  0  0  0  0
    3.6587   -1.0771    3.2074 C   0  0  0  0  0  0  0  0  0  0  0  0
    3.2097   -2.0778    4.0587 C   0  0  0  0  0  0  0  0  0  0  0  0
    2.6738   -3.3092    3.5644 C   0  0  0  0  0  0  0  0  0  0  0  0
    1.8810   -3.4920    2.4711 N   0  0  0  0  0  0  0  0  0  0  0  0
    3.0528   -4.5275    4.0774 C   0  0  0  0  0  0  0  0  0  0  0  0
    1.7754   -4.8026    2.2673 N   0  0  0  0  0  0  0  0  0  0  0  0
    2.5257   -5.4151    3.2022 N   0  0  0  0  0  0  0  0  0  0  0  0
    2.9349   -6.7910    3.0560 C   0  0  0  0  0  0  0  0  0  0  0  0
    2.7180   -7.6252    4.3190 C   0  0  0  0  0  0  0  0  0  0  0  0
    3.2907   -9.0287    4.1314 C   0  0  0  0  0  0  0  0  0  0  0  0
    3.0808   -9.8968    5.3725 C   0  0  0  0  0  0  0  0  0  0  0  0
    3.6663  -11.2945    5.1641 C   0  0  0  0  0  0  0  0  0  0  0  0
    3.5023  -12.1736    6.3986 C   0  0  0  0  0  0  0  0  0  0  0  0
    4.0989  -13.5506    6.1666 C   0  0  0  0  0  0  0  0  0  0  0  0
    4.5975  -13.9056    5.1033 O   0  0  0  0  0  0  0  0  0  0  0  0
    4.0433  -14.3766    7.2593 N   0  0  0  0  0  0  0  0  0  0  0  0
    4.4828  -15.7020    7.0305 O   0  0  0  0  0  0  0  0  0  0  0  0
   -0.0441    1.6393    1.8907 H   0  0  0  0  0  0  0  0  0  0  0  0
   -2.0608    5.5227    1.8583 H   0  0  0  0  0  0  0  0  0  0  0  0
    0.9747    3.3504    4.0765 H   0  0  0  0  0  0  0  0  0  0  0  0
    1.8292    3.3386    0.4326 H   0  0  0  0  0  0  0  0  0  0  0  0
    0.8549    2.0092   -0.0430 H   0  0  0  0  0  0  0  0  0  0  0  0
    2.2899    1.6482    0.8963 H   0  0  0  0  0  0  0  0  0  0  0  0
   -3.2824    5.4673   -0.3287 H   0  0  0  0  0  0  0  0  0  0  0  0
   -2.9212    3.7453   -0.4957 H   0  0  0  0  0  0  0  0  0  0  0  0
    1.1032    0.3455    4.2648 H   0  0  0  0  0  0  0  0  0  0  0  0
   -4.5135    6.1557    2.0063 H   0  0  0  0  0  0  0  0  0  0  0  0
   -4.3468    5.3514    4.0307 H   0  0  0  0  0  0  0  0  0  0  0  0
   -4.5774    2.9768    0.5530 H   0  0  0  0  0  0  0  0  0  0  0  0
   -5.3988    2.7223    2.0379 H   0  0  0  0  0  0  0  0  0  0  0  0
   -3.7348    2.1153    1.8519 H   0  0  0  0  0  0  0  0  0  0  0  0
   -0.7693    5.8840   -0.3450 H   0  0  0  0  0  0  0  0  0  0  0  0
   -1.4204    5.1743   -1.8330 H   0  0  0  0  0  0  0  0  0  0  0  0
   -0.5523    4.1518   -0.6963 H   0  0  0  0  0  0  0  0  0  0  0  0
    4.4607    2.8987    3.4527 H   0  0  0  0  0  0  0  0  0  0  0  0
    0.6890    2.4803    6.4612 H   0  0  0  0  0  0  0  0  0  0  0  0
   -1.2676    2.2032    3.8538 H   0  0  0  0  0  0  0  0  0  0  0  0
   -1.4929    0.7263    4.6558 H   0  0  0  0  0  0  0  0  0  0  0  0
   -0.9388    0.6163    3.0931 H   0  0  0  0  0  0  0  0  0  0  0  0
   -1.8956    4.0513    3.7598 H   0  0  0  0  0  0  0  0  0  0  0  0
   -4.3959    2.3948    3.9408 H   0  0  0  0  0  0  0  0  0  0  0  0
    3.2171    4.3459    5.0138 H   0  0  0  0  0  0  0  0  0  0  0  0
    2.2395    4.9351    3.7554 H   0  0  0  0  0  0  0  0  0  0  0  0
   -6.2965    4.3055    5.3207 H   0  0  0  0  0  0  0  0  0  0  0  0
   -6.4991    2.5665    5.0876 H   0  0  0  0  0  0  0  0  0  0  0  0
   -6.5080    3.6485    3.6925 H   0  0  0  0  0  0  0  0  0  0  0  0
    4.0945    4.6155    0.3064 H   0  0  0  0  0  0  0  0  0  0  0  0
    2.1029    0.4633    8.6392 H   0  0  0  0  0  0  0  0  0  0  0  0
   -1.4413    2.5553    6.0233 H   0  0  0  0  0  0  0  0  0  0  0  0
   -1.9011    2.3285    7.6343 H   0  0  0  0  0  0  0  0  0  0  0  0
   -0.2091   -1.4742    6.6995 H   0  0  0  0  0  0  0  0  0  0  0  0
   -0.8770   -0.8698    5.2317 H   0  0  0  0  0  0  0  0  0  0  0  0
   -1.8961   -1.0457    6.6533 H   0  0  0  0  0  0  0  0  0  0  0  0
   -3.8547    1.1797    7.1421 H   0  0  0  0  0  0  0  0  0  0  0  0
    6.1904    3.3113    2.0898 H   0  0  0  0  0  0  0  0  0  0  0  0
    6.5412    4.4112    0.7361 H   0  0  0  0  0  0  0  0  0  0  0  0
    5.6811    2.8841    0.4981 H   0  0  0  0  0  0  0  0  0  0  0  0
    6.0069    4.1040    3.9103 H   0  0  0  0  0  0  0  0  0  0  0  0
    5.6369    5.0369    5.3364 H   0  0  0  0  0  0  0  0  0  0  0  0
    6.4750    5.7940    4.0021 H   0  0  0  0  0  0  0  0  0  0  0  0
    4.5309   -0.1060    8.3884 H   0  0  0  0  0  0  0  0  0  0  0  0
   -0.7683    0.4992   10.2325 H   0  0  0  0  0  0  0  0  0  0  0  0
   -0.9602    2.0077    9.3222 H   0  0  0  0  0  0  0  0  0  0  0  0
    0.6330    1.2959    9.6396 H   0  0  0  0  0  0  0  0  0  0  0  0
   -3.3529    0.8094    4.1483 H   0  0  0  0  0  0  0  0  0  0  0  0
   -4.8183    0.5259    5.0344 H   0  0  0  0  0  0  0  0  0  0  0  0
   -3.4227   -0.4829    5.3356 H   0  0  0  0  0  0  0  0  0  0  0  0
    2.3304    5.3926    1.6807 H   0  0  0  0  0  0  0  0  0  0  0  0
    5.1141    7.7089    2.3639 H   0  0  0  0  0  0  0  0  0  0  0  0
    6.2589    6.4757    1.8595 H   0  0  0  0  0  0  0  0  0  0  0  0
    2.9185    8.2834    5.0647 H   0  0  0  0  0  0  0  0  0  0  0  0
    2.0270    6.8656    4.5265 H   0  0  0  0  0  0  0  0  0  0  0  0
    2.8322    7.9609    3.3422 H   0  0  0  0  0  0  0  0  0  0  0  0
    3.0791    4.2988    9.2732 H   0  0  0  0  0  0  0  0  0  0  0  0
    3.3729    0.9851   10.3827 H   0  0  0  0  0  0  0  0  0  0  0  0
    6.1498    1.7223    8.7610 H   0  0  0  0  0  0  0  0  0  0  0  0
    5.0625    3.3669    9.6048 H   0  0  0  0  0  0  0  0  0  0  0  0
    5.3853    4.0760    8.0667 H   0  0  0  0  0  0  0  0  0  0  0  0
    2.7205    3.4550    6.4751 H   0  0  0  0  0  0  0  0  0  0  0  0
    3.5940    4.9802    6.8927 H   0  0  0  0  0  0  0  0  0  0  0  0
    1.8847    4.7164    7.3049 H   0  0  0  0  0  0  0  0  0  0  0  0
    3.1080    7.0554   -0.2319 H   0  0  0  0  0  0  0  0  0  0  0  0
    3.8236    8.4822   -0.9050 H   0  0  0  0  0  0  0  0  0  0  0  0
    3.4157    8.4736    0.8163 H   0  0  0  0  0  0  0  0  0  0  0  0
    7.1493    7.9809    0.3035 H   0  0  0  0  0  0  0  0  0  0  0  0
    5.9743    9.2104    0.8325 H   0  0  0  0  0  0  0  0  0  0  0  0
    6.1236    8.7734   -0.8873 H   0  0  0  0  0  0  0  0  0  0  0  0
    5.5182    2.0303    4.8003 H   0  0  0  0  0  0  0  0  0  0  0  0
    4.0798    2.1686    5.7530 H   0  0  0  0  0  0  0  0  0  0  0  0
    7.5644    1.2563    5.6429 H   0  0  0  0  0  0  0  0  0  0  0  0
    6.8759   -0.1051    6.5360 H   0  0  0  0  0  0  0  0  0  0  0  0
    7.8097    1.1525    7.3698 H   0  0  0  0  0  0  0  0  0  0  0  0
    4.1976   -0.8824    6.9651 H   0  0  0  0  0  0  0  0  0  0  0  0
    4.6752    0.7835    3.0277 H   0  0  0  0  0  0  0  0  0  0  0  0
    3.0517   -2.6924    6.1255 H   0  0  0  0  0  0  0  0  0  0  0  0
    3.4708   -1.1313    2.1398 H   0  0  0  0  0  0  0  0  0  0  0  0
    3.7183   -4.8022    4.8820 H   0  0  0  0  0  0  0  0  0  0  0  0
    4.0020   -6.7604    2.7990 H   0  0  0  0  0  0  0  0  0  0  0  0
    2.3933   -7.2202    2.2097 H   0  0  0  0  0  0  0  0  0  0  0  0
    1.6469   -7.6759    4.5489 H   0  0  0  0  0  0  0  0  0  0  0  0
    3.2023   -7.1520    5.1832 H   0  0  0  0  0  0  0  0  0  0  0  0
    4.3635   -8.9557    3.9136 H   0  0  0  0  0  0  0  0  0  0  0  0
    2.8169   -9.5031    3.2624 H   0  0  0  0  0  0  0  0  0  0  0  0
    2.0097   -9.9698    5.5947 H   0  0  0  0  0  0  0  0  0  0  0  0
    3.5606   -9.4205    6.2369 H   0  0  0  0  0  0  0  0  0  0  0  0
    4.7308  -11.2073    4.9094 H   0  0  0  0  0  0  0  0  0  0  0  0
    3.1848  -11.7846    4.3099 H   0  0  0  0  0  0  0  0  0  0  0  0
    2.4395  -12.2898    6.6429 H   0  0  0  0  0  0  0  0  0  0  0  0
    4.0121  -11.7132    7.2526 H   0  0  0  0  0  0  0  0  0  0  0  0
    3.3926  -14.2387    8.0270 H   0  0  0  0  0  0  0  0  0  0  0  0
    4.7822  -15.6830    6.0943 H   0  0  0  0  0  0  0  0  0  0  0  0
  1  2  2  0  0  0  0
  2  3  1  0  0  0  0
  2  4  1  0  0  0  0
  3  5  1  0  0  0  0
  4  6  1  1  0  0  0
  4  7  1  0  0  0  0
  4 78  1  0  0  0  0
  5  8  1  1  0  0  0
  5  9  1  0  0  0  0
  5 79  1  0  0  0  0
  6 10  1  0  0  0  0
  6 11  1  1  0  0  0
  6 80  1  0  0  0  0
  7 81  1  0  0  0  0
  7 82  1  0  0  0  0
  7 83  1  0  0  0  0
  8 12  1  0  0  0  0
  8 13  1  1  0  0  0
  8 14  1  0  0  0  0
  9 15  1  0  0  0  0
  9 84  1  0  0  0  0
  9 85  1  0  0  0  0
 11 17  1  1  0  0  0
 11 18  1  0  0  0  0
 11 86  1  0  0  0  0
 12 87  1  0  0  0  0
 13 20  1  1  0  0  0
 13 19  1  0  0  0  0
 13 88  1  0  0  0  0
 14 89  1  0  0  0  0
 14 90  1  0  0  0  0
 14 91  1  0  0  0  0
 15 92  1  0  0  0  0
 15 93  1  0  0  0  0
 15 94  1  0  0  0  0
 16 21  1  0  0  0  0
 16 22  1  0  0  0  0
 16 10  1  0  0  0  0
 16 95  1  1  0  0  0
 17 23  1  0  0  0  0
 17 24  1  1  0  0  0
 17 96  1  0  0  0  0
 18 97  1  0  0  0  0
 18 98  1  0  0  0  0
 18 99  1  0  0  0  0
 19100  1  0  0  0  0
 20 25  1  0  0  0  0
 20 26  1  0  0  0  0
 20101  1  6  0  0  0
 21 27  1  0  0  0  0
 22 28  1  0  0  0  0
 22102  1  0  0  0  0
 22103  1  0  0  0  0
 24 30  1  1  0  0  0
 24 31  1  0  0  0  0
 24 32  1  0  0  0  0
 25 33  2  0  0  0  0
 25 34  1  0  0  0  0
 26104  1  0  0  0  0
 26105  1  0  0  0  0
 26106  1  0  0  0  0
 27 35  1  1  0  0  0
 27 36  1  0  0  0  0
 27107  1  0  0  0  0
 28 35  1  6  0  0  0
 28 38  1  0  0  0  0
 28 37  1  0  0  0  0
 29 23  1  0  0  0  0
 29 39  1  0  0  0  0
 29 40  1  1  0  0  0
 29108  1  0  0  0  0
 30 41  1  0  0  0  0
 31 34  1  0  0  0  0
 31109  1  0  0  0  0
 31110  1  0  0  0  0
 32111  1  0  0  0  0
 32112  1  0  0  0  0
 32113  1  0  0  0  0
 34 42  1  0  0  0  0
 34114  1  1  0  0  0
 35 44  1  0  0  0  0
 35 43  1  6  0  0  0
 36115  1  0  0  0  0
 36116  1  0  0  0  0
 36117  1  0  0  0  0
 37 45  1  0  0  0  0
 38118  1  0  0  0  0
 38119  1  0  0  0  0
 38120  1  0  0  0  0
 39 46  1  0  0  0  0
 40 48  1  6  0  0  0
 40 47  1  0  0  0  0
 40121  1  0  0  0  0
 41122  1  0  0  0  0
 41123  1  0  0  0  0
 41124  1  0  0  0  0
 42125  1  0  0  0  0
 42126  1  0  0  0  0
 42127  1  0  0  0  0
 43128  1  0  0  0  0
 44 49  1  0  0  0  0
 44129  1  0  0  0  0
 44130  1  0  0  0  0
 45131  1  0  0  0  0
 45132  1  0  0  0  0
 45133  1  0  0  0  0
 46 50  1  0  0  0  0
 46 51  1  0  0  0  0
 46134  1  1  0  0  0
 47135  1  0  0  0  0
 48 50  1  0  0  0  0
 48 52  1  0  0  0  0
 48136  1  1  0  0  0
 49 53  1  0  0  0  0
 49 54  1  0  0  0  0
 50137  1  0  0  0  0
 50138  1  0  0  0  0
 51139  1  0  0  0  0
 51140  1  0  0  0  0
 51141  1  0  0  0  0
 52 55  1  0  0  0  0
 52 56  1  0  0  0  0
 53142  1  0  0  0  0
 53143  1  0  0  0  0
 53144  1  0  0  0  0
 54145  1  0  0  0  0
 54146  1  0  0  0  0
 54147  1  0  0  0  0
 55 57  1  0  0  0  0
 55148  1  0  0  0  0
 55149  1  0  0  0  0
 56150  1  0  0  0  0
 56151  1  0  0  0  0
 56152  1  0  0  0  0
 57 58  2  0  0  0  0
 57 59  1  0  0  0  0
 58 60  1  0  0  0  0
 58153  1  0  0  0  0
 59 61  2  0  0  0  0
 59154  1  0  0  0  0
 60 62  2  0  0  0  0
 60155  1  0  0  0  0
 61 62  1  0  0  0  0
 61156  1  0  0  0  0
 62 63  1  0  0  0  0
 63 64  1  0  0  0  0
 63 65  2  0  0  0  0
 64 66  2  0  0  0  0
 65 67  1  0  0  0  0
 65157  1  0  0  0  0
 66 67  1  0  0  0  0
 67 68  1  0  0  0  0
 68 69  1  0  0  0  0
 68158  1  0  0  0  0
 68159  1  0  0  0  0
 69 70  1  0  0  0  0
 69160  1  0  0  0  0
 69161  1  0  0  0  0
 70 71  1  0  0  0  0
 70162  1  0  0  0  0
 70163  1  0  0  0  0
 71 72  1  0  0  0  0
 71164  1  0  0  0  0
 71165  1  0  0  0  0
 72 73  1  0  0  0  0
 72166  1  0  0  0  0
 72167  1  0  0  0  0
 73 74  1  0  0  0  0
 73168  1  0  0  0  0
 73169  1  0  0  0  0
 74 75  2  0  0  0  0
 74 76  1  0  0  0  0
 76 77  1  0  0  0  0
 76170  1  0  0  0  0
 77171  1  0  0  0  0
M  END
>  <Molecule Name>
2337358

>  <MolRegNo>
2337358

>  <m>
=

>  <Value>
2210

>  <Unit>
nM

>  <Type>
IC50

>  <pValue>
5.66

>  <Ligand Efficiency>
0

>  <Binding Efficiency>
5.18

>  <Surface Efficiency>
0

>  <Assay Index>
977532

>  <Assay Category>


>  <Assay Organism>
Homo sapiens

>  <Target ID>
10869

>  <Target Name>
Histone deacetylase 8

>  <Target Organism>
Homo sapiens

>  <Target Description>
Target is a single protein chain

>  <Sequence Accession>
Q9BY41

>  <Reference>
Bioorg. Med. Chem. 23 (24), 7543-7564 (2015)

>  <Pubmed ID>
26585275

>  <DOI>
10.1016/j.bmc.2015.10.045

$$$$
2337321
 OpenBabel03252423463D

171175  0  0  0  0  0  0  0  0999 V2000
    0.7382   -0.1131   -0.0946 O   0  0  0  0  0  0  0  0  0  0  0  0
    1.9581   -0.0646   -0.0919 C   0  0  0  0  0  0  0  0  0  0  0  0
    2.7287   -1.1521   -0.3476 O   0  0  0  0  0  0  0  0  0  0  0  0
    2.7773    1.1764    0.2417 C   0  0  2  0  0  0  0  0  0  0  0  0
    2.0530   -2.3703   -0.7619 C   0  0  2  0  0  0  0  0  0  0  0  0
    2.8979    1.3056    1.8583 C   0  0  2  0  0  0  0  0  0  0  0  0
    2.2034    2.2806   -0.6768 C   0  0  0  0  0  0  0  0  0  0  0  0
    2.8433   -3.6121   -0.1962 C   0  0  2  0  0  0  0  0  0  0  0  0
    1.9270   -2.3824   -2.3090 C   0  0  0  0  0  0  0  0  0  0  0  0
    2.1457    2.3849    2.4419 O   0  0  0  0  0  0  0  0  0  0  0  0
    4.4156    1.2684    2.4346 C   0  0  1  0  0  0  0  0  0  0  0  0
    2.2211   -4.8156   -0.6868 O   0  0  0  0  0  0  0  0  0  0  0  0
    2.8309   -3.7178    1.4124 C   0  0  2  0  0  0  0  0  0  0  0  0
    4.2587   -3.6059   -0.8080 C   0  0  0  0  0  0  0  0  0  0  0  0
    1.1183   -1.2318   -2.8958 C   0  0  0  0  0  0  0  0  0  0  0  0
    0.7681    2.4113    2.0668 C   0  0  2  0  0  0  0  0  0  0  0  0
    4.6196    1.2121    4.0752 C   0  0  2  0  0  0  0  0  0  0  0  0
    5.1040    0.1055    1.7138 C   0  0  0  0  0  0  0  0  0  0  0  0
    2.4754   -2.4997    2.0702 O   0  0  0  0  0  0  0  0  0  0  0  0
    4.1582   -4.2069    2.0342 C   0  0  1  0  0  0  0  0  0  0  0  0
    0.0873    3.6054    2.3234 O   0  0  0  0  0  0  0  0  0  0  0  0
   -0.0597    1.1882    2.3681 C   0  0  0  0  0  0  0  0  0  0  0  0
    5.4964    2.2676    4.5848 O   0  0  0  0  0  0  0  0  0  0  0  0
    5.2870   -0.1547    4.7663 C   0  0  1  0  0  0  0  0  0  0  0  0
    4.3577   -3.8183    3.5033 C   0  0  0  0  0  0  0  0  0  0  0  0
    4.4132   -5.7053    1.9074 C   0  0  0  0  0  0  0  0  0  0  0  0
   -0.6002    3.7625    3.5529 C   0  0  2  0  0  0  0  0  0  0  0  0
   -0.6191    1.1160    3.7668 C   0  0  2  0  0  0  0  0  0  0  0  0
    5.1481    3.6399    4.5092 C   0  0  2  0  0  0  0  0  0  0  0  0
    5.0002   -0.0725    6.2121 O   0  0  0  0  0  0  0  0  0  0  0  0
    4.5921   -1.4700    4.3013 C   0  0  0  0  0  0  0  0  0  0  0  0
    6.8267   -0.0856    4.6583 C   0  0  0  0  0  0  0  0  0  0  0  0
    3.6861   -4.3522    4.3922 O   0  0  0  0  0  0  0  0  0  0  0  0
    5.3951   -2.7272    3.8675 C   0  0  2  0  0  0  0  0  0  0  0  0
   -1.3559    2.4924    4.1362 C   0  0  1  0  0  0  0  0  0  0  0  0
   -1.4440    5.0063    3.2411 C   0  0  0  0  0  0  0  0  0  0  0  0
    0.4375    1.0173    4.7625 O   0  0  0  0  0  0  0  0  0  0  0  0
   -1.4146   -0.2059    3.8133 C   0  0  0  0  0  0  0  0  0  0  0  0
    6.2183    4.4724    5.0354 O   0  0  0  0  0  0  0  0  0  0  0  0
    3.8138    4.1843    5.0720 C   0  0  2  0  0  0  0  0  0  0  0  0
    5.6002   -1.0688    7.0516 C   0  0  0  0  0  0  0  0  0  0  0  0
    6.4890   -2.5983    2.7994 C   0  0  0  0  0  0  0  0  0  0  0  0
   -1.1440    2.6296    5.6116 O   0  0  0  0  0  0  0  0  0  0  0  0
   -2.9222    2.5525    4.1600 C   0  0  0  0  0  0  0  0  0  0  0  0
    1.2234   -0.1524    4.9097 C   0  0  0  0  0  0  0  0  0  0  0  0
    6.2715    4.6662    6.4582 C   0  0  1  0  0  0  0  0  0  0  0  0
    3.6816    5.5565    4.5828 O   0  0  0  0  0  0  0  0  0  0  0  0
    3.7555    4.2318    6.6357 C   0  0  2  0  0  0  0  0  0  0  0  0
   -3.9361    2.6447    3.0651 N   0  0  0  0  0  0  0  0  0  0  0  0
    4.9430    5.1005    7.0834 C   0  0  0  0  0  0  0  0  0  0  0  0
    6.9217    3.4988    7.1856 C   0  0  0  0  0  0  0  0  0  0  0  0
    3.6768    2.8929    7.2667 N   0  0  0  0  0  0  0  0  0  0  0  0
   -3.9251    1.4181    2.2562 C   0  0  0  0  0  0  0  0  0  0  0  0
   -5.2282    2.8001    3.7866 C   0  0  0  0  0  0  0  0  0  0  0  0
    2.3717    2.2790    7.0248 C   0  0  0  0  0  0  0  0  0  0  0  0
    3.9426    2.8235    8.7033 C   0  0  0  0  0  0  0  0  0  0  0  0
   -5.0118    1.1101    1.2468 C   0  0  0  0  0  0  0  0  0  0  0  0
   -6.0199    1.9823    0.8357 C   0  0  0  0  0  0  0  0  0  0  0  0
   -5.0430   -0.2100    0.7684 C   0  0  0  0  0  0  0  0  0  0  0  0
   -7.1678    1.4809    0.2102 C   0  0  0  0  0  0  0  0  0  0  0  0
   -6.1553   -0.6972    0.0942 C   0  0  0  0  0  0  0  0  0  0  0  0
   -7.2731    0.1199   -0.0970 C   0  0  0  0  0  0  0  0  0  0  0  0
   -8.5275   -0.4427   -0.5491 C   0  0  0  0  0  0  0  0  0  0  0  0
   -9.7215    0.2316   -0.6007 N   0  0  0  0  0  0  0  0  0  0  0  0
   -8.7316   -1.7442   -0.9465 C   0  0  0  0  0  0  0  0  0  0  0  0
  -10.6445   -0.5953   -1.0794 N   0  0  0  0  0  0  0  0  0  0  0  0
  -10.0347   -1.7625   -1.3344 N   0  0  0  0  0  0  0  0  0  0  0  0
  -10.6545   -2.7640   -2.1662 C   0  0  0  0  0  0  0  0  0  0  0  0
  -10.9031   -4.0812   -1.4433 C   0  0  0  0  0  0  0  0  0  0  0  0
  -11.3884   -5.1260   -2.4426 C   0  0  0  0  0  0  0  0  0  0  0  0
  -11.6399   -6.4741   -1.7657 C   0  0  0  0  0  0  0  0  0  0  0  0
  -12.1090   -7.4882   -2.7929 C   0  0  0  0  0  0  0  0  0  0  0  0
  -12.3999   -8.8534   -2.1565 C   0  0  0  0  0  0  0  0  0  0  0  0
  -12.9116   -9.8287   -3.1871 C   0  0  0  0  0  0  0  0  0  0  0  0
  -13.0909   -9.5557   -4.3724 O   0  0  0  0  0  0  0  0  0  0  0  0
  -13.1874  -11.0652   -2.6771 N   0  0  0  0  0  0  0  0  0  0  0  0
  -13.5456  -12.0399   -3.6479 O   0  0  0  0  0  0  0  0  0  0  0  0
    3.7667    1.0351   -0.1856 H   0  0  0  0  0  0  0  0  0  0  0  0
    1.0385   -2.4110   -0.3442 H   0  0  0  0  0  0  0  0  0  0  0  0
    2.4829    0.3866    2.2781 H   0  0  0  0  0  0  0  0  0  0  0  0
    1.1144    2.2430   -0.8074 H   0  0  0  0  0  0  0  0  0  0  0  0
    2.5609    2.1147   -1.7024 H   0  0  0  0  0  0  0  0  0  0  0  0
    2.5025    3.2857   -0.3717 H   0  0  0  0  0  0  0  0  0  0  0  0
    1.4666   -3.3228   -2.6294 H   0  0  0  0  0  0  0  0  0  0  0  0
    2.9167   -2.3197   -2.7717 H   0  0  0  0  0  0  0  0  0  0  0  0
    4.8923    2.1924    2.0949 H   0  0  0  0  0  0  0  0  0  0  0  0
    1.3076   -4.8559   -0.3478 H   0  0  0  0  0  0  0  0  0  0  0  0
    2.0457   -4.4302    1.6984 H   0  0  0  0  0  0  0  0  0  0  0  0
    4.2252   -3.6850   -1.8986 H   0  0  0  0  0  0  0  0  0  0  0  0
    4.8441   -4.4811   -0.5164 H   0  0  0  0  0  0  0  0  0  0  0  0
    4.8145   -2.7009   -0.5433 H   0  0  0  0  0  0  0  0  0  0  0  0
    0.1254   -1.1673   -2.4428 H   0  0  0  0  0  0  0  0  0  0  0  0
    0.9882   -1.3800   -3.9729 H   0  0  0  0  0  0  0  0  0  0  0  0
    1.6345   -0.2761   -2.7654 H   0  0  0  0  0  0  0  0  0  0  0  0
    0.7561    2.4602    0.9989 H   0  0  0  0  0  0  0  0  0  0  0  0
    3.6589    1.3905    4.5515 H   0  0  0  0  0  0  0  0  0  0  0  0
    4.5214   -0.8183    1.7853 H   0  0  0  0  0  0  0  0  0  0  0  0
    6.1177   -0.0458    2.0638 H   0  0  0  0  0  0  0  0  0  0  0  0
    5.2314    0.2605    0.6423 H   0  0  0  0  0  0  0  0  0  0  0  0
    2.1781   -1.8434    1.4296 H   0  0  0  0  0  0  0  0  0  0  0  0
    4.9473   -3.7237    1.4777 H   0  0  0  0  0  0  0  0  0  0  0  0
    0.5077    0.2785    2.1828 H   0  0  0  0  0  0  0  0  0  0  0  0
   -0.8963    1.1889    1.6613 H   0  0  0  0  0  0  0  0  0  0  0  0
    3.7647   -6.2849    2.5705 H   0  0  0  0  0  0  0  0  0  0  0  0
    5.4503   -5.9202    2.1944 H   0  0  0  0  0  0  0  0  0  0  0  0
    4.2699   -6.0661    0.8871 H   0  0  0  0  0  0  0  0  0  0  0  0
    0.1564    4.0739    4.2848 H   0  0  0  0  0  0  0  0  0  0  0  0
    5.1602    3.8828    3.4429 H   0  0  0  0  0  0  0  0  0  0  0  0
    3.8293   -1.2352    3.5647 H   0  0  0  0  0  0  0  0  0  0  0  0
    3.9524   -1.8158    5.1301 H   0  0  0  0  0  0  0  0  0  0  0  0
    7.2399    0.6545    5.3547 H   0  0  0  0  0  0  0  0  0  0  0  0
    7.1823    0.1924    3.6679 H   0  0  0  0  0  0  0  0  0  0  0  0
    7.3016   -1.0291    4.9437 H   0  0  0  0  0  0  0  0  0  0  0  0
    5.9122   -3.1197    4.7533 H   0  0  0  0  0  0  0  0  0  0  0  0
   -2.0945    4.8360    2.3727 H   0  0  0  0  0  0  0  0  0  0  0  0
   -0.7769    5.8241    2.9252 H   0  0  0  0  0  0  0  0  0  0  0  0
   -2.0347    5.3687    4.0821 H   0  0  0  0  0  0  0  0  0  0  0  0
   -0.7958   -1.0355    3.4389 H   0  0  0  0  0  0  0  0  0  0  0  0
   -2.2505   -0.2386    3.1279 H   0  0  0  0  0  0  0  0  0  0  0  0
   -1.7193   -0.4881    4.8218 H   0  0  0  0  0  0  0  0  0  0  0  0
    2.9635    3.6427    4.6594 H   0  0  0  0  0  0  0  0  0  0  0  0
    5.2634   -0.9047    8.0794 H   0  0  0  0  0  0  0  0  0  0  0  0
    6.6922   -1.0026    7.0549 H   0  0  0  0  0  0  0  0  0  0  0  0
    5.3002   -2.0824    6.7721 H   0  0  0  0  0  0  0  0  0  0  0  0
    6.1217   -2.2249    1.8433 H   0  0  0  0  0  0  0  0  0  0  0  0
    6.9334   -3.5797    2.5948 H   0  0  0  0  0  0  0  0  0  0  0  0
    7.3184   -1.9554    3.0834 H   0  0  0  0  0  0  0  0  0  0  0  0
   -0.5049    1.9246    5.8422 H   0  0  0  0  0  0  0  0  0  0  0  0
   -3.1254    3.4407    4.7794 H   0  0  0  0  0  0  0  0  0  0  0  0
   -3.2247    1.7173    4.8128 H   0  0  0  0  0  0  0  0  0  0  0  0
    1.3276   -0.3528    5.9795 H   0  0  0  0  0  0  0  0  0  0  0  0
    2.2105    0.0493    4.5193 H   0  0  0  0  0  0  0  0  0  0  0  0
    0.8565   -1.0550    4.4293 H   0  0  0  0  0  0  0  0  0  0  0  0
    6.9563    5.5141    6.5957 H   0  0  0  0  0  0  0  0  0  0  0  0
    4.6170    5.9091    4.5331 H   0  0  0  0  0  0  0  0  0  0  0  0
    2.8557    4.7972    6.9242 H   0  0  0  0  0  0  0  0  0  0  0  0
    4.7399    6.1343    6.7647 H   0  0  0  0  0  0  0  0  0  0  0  0
    5.0127    5.1767    8.1756 H   0  0  0  0  0  0  0  0  0  0  0  0
    6.3372    2.5813    7.1017 H   0  0  0  0  0  0  0  0  0  0  0  0
    7.0500    3.7355    8.2489 H   0  0  0  0  0  0  0  0  0  0  0  0
    7.9074    3.2845    6.7648 H   0  0  0  0  0  0  0  0  0  0  0  0
   -3.9880    0.5789    2.9593 H   0  0  0  0  0  0  0  0  0  0  0  0
   -2.9824    1.3734    1.7085 H   0  0  0  0  0  0  0  0  0  0  0  0
   -5.2210    3.7293    4.3696 H   0  0  0  0  0  0  0  0  0  0  0  0
   -5.4210    1.9668    4.4747 H   0  0  0  0  0  0  0  0  0  0  0  0
   -6.0984    2.8924    3.1401 H   0  0  0  0  0  0  0  0  0  0  0  0
    2.3686    1.2427    7.3793 H   0  0  0  0  0  0  0  0  0  0  0  0
    2.1514    2.2434    5.9614 H   0  0  0  0  0  0  0  0  0  0  0  0
    1.5570    2.8181    7.5203 H   0  0  0  0  0  0  0  0  0  0  0  0
    3.8596    1.7831    9.0461 H   0  0  0  0  0  0  0  0  0  0  0  0
    3.2510    3.4329    9.2927 H   0  0  0  0  0  0  0  0  0  0  0  0
    4.9632    3.1132    8.9585 H   0  0  0  0  0  0  0  0  0  0  0  0
   -5.9734    3.0415    1.0747 H   0  0  0  0  0  0  0  0  0  0  0  0
   -4.2243   -0.8935    0.9852 H   0  0  0  0  0  0  0  0  0  0  0  0
   -7.9989    2.1557    0.0121 H   0  0  0  0  0  0  0  0  0  0  0  0
   -6.1530   -1.7389   -0.2096 H   0  0  0  0  0  0  0  0  0  0  0  0
   -8.0877   -2.6040   -1.0412 H   0  0  0  0  0  0  0  0  0  0  0  0
   -9.9716   -2.9173   -3.0112 H   0  0  0  0  0  0  0  0  0  0  0  0
  -11.5881   -2.3533   -2.5652 H   0  0  0  0  0  0  0  0  0  0  0  0
  -11.6450   -3.9397   -0.6482 H   0  0  0  0  0  0  0  0  0  0  0  0
   -9.9844   -4.4369   -0.9601 H   0  0  0  0  0  0  0  0  0  0  0  0
  -10.6415   -5.2468   -3.2383 H   0  0  0  0  0  0  0  0  0  0  0  0
  -12.3113   -4.7755   -2.9212 H   0  0  0  0  0  0  0  0  0  0  0  0
  -12.3852   -6.3569   -0.9789 H   0  0  0  0  0  0  0  0  0  0  0  0
  -10.7103   -6.8241   -1.2950 H   0  0  0  0  0  0  0  0  0  0  0  0
  -11.3581   -7.6041   -3.5726 H   0  0  0  0  0  0  0  0  0  0  0  0
  -13.0159   -7.1136   -3.2911 H   0  0  0  0  0  0  0  0  0  0  0  0
  -13.1621   -8.7558   -1.3789 H   0  0  0  0  0  0  0  0  0  0  0  0
  -11.4822   -9.2538   -1.7104 H   0  0  0  0  0  0  0  0  0  0  0  0
  -12.7389  -11.4176   -1.8315 H   0  0  0  0  0  0  0  0  0  0  0  0
  -13.5632  -11.4875   -4.4681 H   0  0  0  0  0  0  0  0  0  0  0  0
  1  2  2  0  0  0  0
  2  3  1  0  0  0  0
  2  4  1  0  0  0  0
  3  5  1  0  0  0  0
  4  6  1  1  0  0  0
  4  7  1  0  0  0  0
  4 78  1  0  0  0  0
  5  8  1  1  0  0  0
  5  9  1  0  0  0  0
  5 79  1  0  0  0  0
  6 10  1  0  0  0  0
  6 11  1  1  0  0  0
  6 80  1  0  0  0  0
  7 81  1  0  0  0  0
  7 82  1  0  0  0  0
  7 83  1  0  0  0  0
  8 12  1  0  0  0  0
  8 13  1  1  0  0  0
  8 14  1  0  0  0  0
  9 15  1  0  0  0  0
  9 84  1  0  0  0  0
  9 85  1  0  0  0  0
 11 17  1  1  0  0  0
 11 18  1  0  0  0  0
 11 86  1  0  0  0  0
 12 87  1  0  0  0  0
 13 20  1  1  0  0  0
 13 19  1  0  0  0  0
 13 88  1  0  0  0  0
 14 89  1  0  0  0  0
 14 90  1  0  0  0  0
 14 91  1  0  0  0  0
 15 92  1  0  0  0  0
 15 93  1  0  0  0  0
 15 94  1  0  0  0  0
 16 10  1  0  0  0  0
 16 21  1  0  0  0  0
 16 22  1  0  0  0  0
 16 95  1  6  0  0  0
 17 23  1  0  0  0  0
 17 24  1  1  0  0  0
 17 96  1  0  0  0  0
 18 97  1  0  0  0  0
 18 98  1  0  0  0  0
 18 99  1  0  0  0  0
 19100  1  0  0  0  0
 20 25  1  0  0  0  0
 20 26  1  0  0  0  0
 20101  1  6  0  0  0
 21 27  1  0  0  0  0
 22 28  1  0  0  0  0
 22102  1  0  0  0  0
 22103  1  0  0  0  0
 24 30  1  1  0  0  0
 24 31  1  0  0  0  0
 24 32  1  0  0  0  0
 25 33  2  0  0  0  0
 25 34  1  0  0  0  0
 26104  1  0  0  0  0
 26105  1  0  0  0  0
 26106  1  0  0  0  0
 27 35  1  1  0  0  0
 27 36  1  0  0  0  0
 27107  1  0  0  0  0
 28 37  1  0  0  0  0
 28 38  1  0  0  0  0
 28 35  1  1  0  0  0
 29 23  1  0  0  0  0
 29 39  1  0  0  0  0
 29 40  1  1  0  0  0
 29108  1  0  0  0  0
 30 41  1  0  0  0  0
 31 34  1  0  0  0  0
 31109  1  0  0  0  0
 31110  1  0  0  0  0
 32111  1  0  0  0  0
 32112  1  0  0  0  0
 32113  1  0  0  0  0
 34 42  1  0  0  0  0
 34114  1  1  0  0  0
 35 43  1  1  0  0  0
 35 44  1  0  0  0  0
 36115  1  0  0  0  0
 36116  1  0  0  0  0
 36117  1  0  0  0  0
 37 45  1  0  0  0  0
 38118  1  0  0  0  0
 38119  1  0  0  0  0
 38120  1  0  0  0  0
 39 46  1  0  0  0  0
 40 48  1  1  0  0  0
 40 47  1  0  0  0  0
 40121  1  0  0  0  0
 41122  1  0  0  0  0
 41123  1  0  0  0  0
 41124  1  0  0  0  0
 42125  1  0  0  0  0
 42126  1  0  0  0  0
 42127  1  0  0  0  0
 43128  1  0  0  0  0
 44 49  1  0  0  0  0
 44129  1  0  0  0  0
 44130  1  0  0  0  0
 45131  1  0  0  0  0
 45132  1  0  0  0  0
 45133  1  0  0  0  0
 46 50  1  0  0  0  0
 46 51  1  0  0  0  0
 46134  1  1  0  0  0
 47135  1  0  0  0  0
 48 50  1  0  0  0  0
 48 52  1  0  0  0  0
 48136  1  1  0  0  0
 49 53  1  0  0  0  0
 49 54  1  0  0  0  0
 50137  1  0  0  0  0
 50138  1  0  0  0  0
 51139  1  0  0  0  0
 51140  1  0  0  0  0
 51141  1  0  0  0  0
 52 55  1  0  0  0  0
 52 56  1  0  0  0  0
 53 57  1  0  0  0  0
 53142  1  0  0  0  0
 53143  1  0  0  0  0
 54144  1  0  0  0  0
 54145  1  0  0  0  0
 54146  1  0  0  0  0
 55147  1  0  0  0  0
 55148  1  0  0  0  0
 55149  1  0  0  0  0
 56150  1  0  0  0  0
 56151  1  0  0  0  0
 56152  1  0  0  0  0
 57 58  2  0  0  0  0
 57 59  1  0  0  0  0
 58 60  1  0  0  0  0
 58153  1  0  0  0  0
 59 61  2  0  0  0  0
 59154  1  0  0  0  0
 60 62  2  0  0  0  0
 60155  1  0  0  0  0
 61 62  1  0  0  0  0
 61156  1  0  0  0  0
 62 63  1  0  0  0  0
 63 64  1  0  0  0  0
 63 65  2  0  0  0  0
 64 66  2  0  0  0  0
 65 67  1  0  0  0  0
 65157  1  0  0  0  0
 66 67  1  0  0  0  0
 67 68  1  0  0  0  0
 68 69  1  0  0  0  0
 68158  1  0  0  0  0
 68159  1  0  0  0  0
 69 70  1  0  0  0  0
 69160  1  0  0  0  0
 69161  1  0  0  0  0
 70 71  1  0  0  0  0
 70162  1  0  0  0  0
 70163  1  0  0  0  0
 71 72  1  0  0  0  0
 71164  1  0  0  0  0
 71165  1  0  0  0  0
 72 73  1  0  0  0  0
 72166  1  0  0  0  0
 72167  1  0  0  0  0
 73 74  1  0  0  0  0
 73168  1  0  0  0  0
 73169  1  0  0  0  0
 74 75  2  0  0  0  0
 74 76  1  0  0  0  0
 76 77  1  0  0  0  0
 76170  1  0  0  0  0
 77171  1  0  0  0  0
M  END
>  <Molecule Name>
2337321

>  <MolRegNo>
2337321

>  <m>
=

>  <Value>
990

>  <Unit>
nM

>  <Type>
IC50

>  <pValue>
6

>  <Ligand Efficiency>
0

>  <Binding Efficiency>
0

>  <Surface Efficiency>
0

>  <Assay Index>
977533

>  <Assay Category>


>  <Assay Organism>
Homo sapiens

>  <Target ID>
80682

>  <Target Name>
A549

>  <Target Organism>
Homo sapiens

>  <Target Description>
Target is a specific cell-line

>  <Sequence Accession>


>  <Reference>
Bioorg. Med. Chem. 23 (24), 7543-7564 (2015)

>  <Pubmed ID>
26585275

>  <DOI>
10.1016/j.bmc.2015.10.045

$$$$
2337321
 OpenBabel03252423463D

171175  0  0  0  0  0  0  0  0999 V2000
    0.6701   -0.3234   -0.1454 O   0  0  0  0  0  0  0  0  0  0  0  0
    1.8947   -0.2805   -0.0996 C   0  0  0  0  0  0  0  0  0  0  0  0
    2.6948   -1.3553   -0.3312 O   0  0  0  0  0  0  0  0  0  0  0  0
    2.6987    0.9657    0.2370 C   0  0  2  0  0  0  0  0  0  0  0  0
    2.0217   -2.5699   -0.7811 C   0  0  2  0  0  0  0  0  0  0  0  0
    2.8204    1.0907    1.8455 C   0  0  2  0  0  0  0  0  0  0  0  0
    2.1126    2.0501   -0.6922 C   0  0  0  0  0  0  0  0  0  0  0  0
    2.8221   -3.8152   -0.2260 C   0  0  2  0  0  0  0  0  0  0  0  0
    1.9170   -2.5575   -2.3291 C   0  0  0  0  0  0  0  0  0  0  0  0
    2.1620    2.2205    2.4493 O   0  0  0  0  0  0  0  0  0  0  0  0
    4.3347    1.0275    2.3810 C   0  0  1  0  0  0  0  0  0  0  0  0
    2.2083   -5.0156   -0.7356 O   0  0  0  0  0  0  0  0  0  0  0  0
    2.8025   -3.9361    1.3795 C   0  0  2  0  0  0  0  0  0  0  0  0
    4.2422   -3.7951   -0.8330 C   0  0  0  0  0  0  0  0  0  0  0  0
    1.0901   -1.4173   -2.9164 C   0  0  0  0  0  0  0  0  0  0  0  0
    0.8032    2.4168    2.0736 C   0  0  2  0  0  0  0  0  0  0  0  0
    4.6273    1.0641    3.9875 C   0  0  2  0  0  0  0  0  0  0  0  0
    5.0473   -0.1266    1.6899 C   0  0  0  0  0  0  0  0  0  0  0  0
    2.3367   -2.7447    2.0194 O   0  0  0  0  0  0  0  0  0  0  0  0
    4.1428   -4.3722    2.0208 C   0  0  1  0  0  0  0  0  0  0  0  0
    0.2634    3.6472    2.4554 O   0  0  0  0  0  0  0  0  0  0  0  0
   -0.1352    1.2624    2.2893 C   0  0  0  0  0  0  0  0  0  0  0  0
    5.6674    2.0603    4.2720 O   0  0  0  0  0  0  0  0  0  0  0  0
    5.2342   -0.2797    4.7462 C   0  0  1  0  0  0  0  0  0  0  0  0
    4.3246   -3.9728    3.4867 C   0  0  0  0  0  0  0  0  0  0  0  0
    4.4127   -5.8726    1.9036 C   0  0  0  0  0  0  0  0  0  0  0  0
   -0.4655    3.7633    3.6687 C   0  0  2  0  0  0  0  0  0  0  0  0
   -0.6477    1.1274    3.7072 C   0  0  2  0  0  0  0  0  0  0  0  0
    5.3199    3.4313    4.3863 C   0  0  2  0  0  0  0  0  0  0  0  0
    5.1339   -0.1327    6.2061 O   0  0  0  0  0  0  0  0  0  0  0  0
    4.5837   -1.6468    4.3475 C   0  0  0  0  0  0  0  0  0  0  0  0
    6.7814   -0.2876    4.6600 C   0  0  0  0  0  0  0  0  0  0  0  0
    3.6265   -4.4818    4.3704 O   0  0  0  0  0  0  0  0  0  0  0  0
    5.3828   -2.8982    3.8688 C   0  0  2  0  0  0  0  0  0  0  0  0
   -1.2923    2.5073    4.1775 C   0  0  1  0  0  0  0  0  0  0  0  0
   -1.2548    5.0458    3.3803 C   0  0  0  0  0  0  0  0  0  0  0  0
    0.4386    0.9293    4.6567 O   0  0  0  0  0  0  0  0  0  0  0  0
   -1.5285   -0.1388    3.6993 C   0  0  0  0  0  0  0  0  0  0  0  0
    5.2783    4.0884    3.1129 O   0  0  0  0  0  0  0  0  0  0  0  0
    6.2709    4.2484    5.3287 C   0  0  2  0  0  0  0  0  0  0  0  0
    3.8821   -0.1278    6.8603 C   0  0  0  0  0  0  0  0  0  0  0  0
    6.4841   -2.7796    2.8085 C   0  0  0  0  0  0  0  0  0  0  0  0
   -1.0590    2.5298    5.6573 O   0  0  0  0  0  0  0  0  0  0  0  0
   -2.8490    2.6653    4.2365 C   0  0  0  0  0  0  0  0  0  0  0  0
    1.1188   -0.3030    4.7749 C   0  0  0  0  0  0  0  0  0  0  0  0
    6.5433    4.3039    2.4753 C   0  0  1  0  0  0  0  0  0  0  0  0
    5.7083    5.5744    5.5256 O   0  0  0  0  0  0  0  0  0  0  0  0
    7.7203    4.4283    4.7604 C   0  0  2  0  0  0  0  0  0  0  0  0
   -3.8532    2.9032    3.1663 N   0  0  0  0  0  0  0  0  0  0  0  0
    7.5525    5.0447    3.3550 C   0  0  0  0  0  0  0  0  0  0  0  0
    7.1349    3.0422    1.8591 C   0  0  0  0  0  0  0  0  0  0  0  0
    8.5441    3.1915    4.8534 N   0  0  0  0  0  0  0  0  0  0  0  0
   -3.9981    1.7266    2.2917 C   0  0  0  0  0  0  0  0  0  0  0  0
   -5.1265    3.1664    3.8957 C   0  0  0  0  0  0  0  0  0  0  0  0
    8.9310    2.9144    6.2449 C   0  0  0  0  0  0  0  0  0  0  0  0
    9.7539    3.1571    4.0309 C   0  0  0  0  0  0  0  0  0  0  0  0
   -5.2163    1.6654    1.3955 C   0  0  0  0  0  0  0  0  0  0  0  0
   -5.7598    2.7853    0.7554 C   0  0  0  0  0  0  0  0  0  0  0  0
   -5.8645    0.4293    1.2594 C   0  0  0  0  0  0  0  0  0  0  0  0
   -7.0419    2.7182    0.1994 C   0  0  0  0  0  0  0  0  0  0  0  0
   -7.1230    0.3575    0.6772 C   0  0  0  0  0  0  0  0  0  0  0  0
   -7.7630    1.5183    0.2277 C   0  0  0  0  0  0  0  0  0  0  0  0
   -9.1652    1.4876   -0.1335 C   0  0  0  0  0  0  0  0  0  0  0  0
   -9.9259    2.5840   -0.4543 N   0  0  0  0  0  0  0  0  0  0  0  0
   -9.9642    0.3680   -0.1572 C   0  0  0  0  0  0  0  0  0  0  0  0
  -11.1547    2.1665   -0.7411 N   0  0  0  0  0  0  0  0  0  0  0  0
  -11.1580    0.8314   -0.6125 N   0  0  0  0  0  0  0  0  0  0  0  0
  -12.2252    0.0251   -1.1531 C   0  0  0  0  0  0  0  0  0  0  0  0
  -12.9855   -0.7518   -0.0868 C   0  0  0  0  0  0  0  0  0  0  0  0
  -13.9705   -1.7109   -0.7500 C   0  0  0  0  0  0  0  0  0  0  0  0
  -14.7603   -2.5022    0.2867 C   0  0  0  0  0  0  0  0  0  0  0  0
  -15.7360   -3.4560   -0.4037 C   0  0  0  0  0  0  0  0  0  0  0  0
  -16.5486   -4.2636    0.5983 C   0  0  0  0  0  0  0  0  0  0  0  0
  -17.5109   -5.2087   -0.1062 C   0  0  0  0  0  0  0  0  0  0  0  0
  -17.5882   -5.3652   -1.3188 O   0  0  0  0  0  0  0  0  0  0  0  0
  -18.3004   -5.9234    0.7662 N   0  0  0  0  0  0  0  0  0  0  0  0
  -19.2646   -6.7421    0.1218 O   0  0  0  0  0  0  0  0  0  0  0  0
    3.6917    0.8388   -0.1863 H   0  0  0  0  0  0  0  0  0  0  0  0
    1.0065   -2.6288   -0.3733 H   0  0  0  0  0  0  0  0  0  0  0  0
    2.3624    0.1946    2.2739 H   0  0  0  0  0  0  0  0  0  0  0  0
    1.0133    2.0313   -0.7600 H   0  0  0  0  0  0  0  0  0  0  0  0
    2.4147    1.8374   -1.7276 H   0  0  0  0  0  0  0  0  0  0  0  0
    2.4560    3.0521   -0.4423 H   0  0  0  0  0  0  0  0  0  0  0  0
    1.4802   -3.5016   -2.6751 H   0  0  0  0  0  0  0  0  0  0  0  0
    2.9124   -2.4665   -2.7804 H   0  0  0  0  0  0  0  0  0  0  0  0
    4.7516    1.9547    1.9975 H   0  0  0  0  0  0  0  0  0  0  0  0
    1.2936   -5.0567   -0.4003 H   0  0  0  0  0  0  0  0  0  0  0  0
    2.0526   -4.6915    1.6481 H   0  0  0  0  0  0  0  0  0  0  0  0
    4.2160   -3.8630   -1.9253 H   0  0  0  0  0  0  0  0  0  0  0  0
    4.8311   -4.6684   -0.5447 H   0  0  0  0  0  0  0  0  0  0  0  0
    4.7914   -2.8896   -0.5583 H   0  0  0  0  0  0  0  0  0  0  0  0
    0.0925   -1.3757   -2.4698 H   0  0  0  0  0  0  0  0  0  0  0  0
    0.9684   -1.5565   -3.9952 H   0  0  0  0  0  0  0  0  0  0  0  0
    1.5860   -0.4519   -2.7751 H   0  0  0  0  0  0  0  0  0  0  0  0
    0.8134    2.5802    1.0154 H   0  0  0  0  0  0  0  0  0  0  0  0
    3.7215    1.3848    4.5115 H   0  0  0  0  0  0  0  0  0  0  0  0
    4.4864   -1.0586    1.8148 H   0  0  0  0  0  0  0  0  0  0  0  0
    6.0615   -0.2328    2.0438 H   0  0  0  0  0  0  0  0  0  0  0  0
    5.1581    0.0021    0.6220 H   0  0  0  0  0  0  0  0  0  0  0  0
    2.5024   -1.9939    1.4337 H   0  0  0  0  0  0  0  0  0  0  0  0
    4.9250   -3.8803    1.4625 H   0  0  0  0  0  0  0  0  0  0  0  0
    0.3389    0.3253    2.0129 H   0  0  0  0  0  0  0  0  0  0  0  0
   -0.9862    1.4030    1.6135 H   0  0  0  0  0  0  0  0  0  0  0  0
    3.7542   -6.4536    2.5559 H   0  0  0  0  0  0  0  0  0  0  0  0
    5.4453   -6.0863    2.2049 H   0  0  0  0  0  0  0  0  0  0  0  0
    4.2826   -6.2388    0.8820 H   0  0  0  0  0  0  0  0  0  0  0  0
    0.2756    4.0117    4.4366 H   0  0  0  0  0  0  0  0  0  0  0  0
    4.3140    3.5105    4.8166 H   0  0  0  0  0  0  0  0  0  0  0  0
    3.7476   -1.4614    3.6746 H   0  0  0  0  0  0  0  0  0  0  0  0
    4.0766   -2.0420    5.2341 H   0  0  0  0  0  0  0  0  0  0  0  0
    7.2215    0.4641    5.3231 H   0  0  0  0  0  0  0  0  0  0  0  0
    7.1680   -0.0840    3.6622 H   0  0  0  0  0  0  0  0  0  0  0  0
    7.1954   -1.2340    5.0287 H   0  0  0  0  0  0  0  0  0  0  0  0
    5.8942   -3.3130    4.7501 H   0  0  0  0  0  0  0  0  0  0  0  0
   -1.9154    4.9121    2.5132 H   0  0  0  0  0  0  0  0  0  0  0  0
   -0.5586    5.8436    3.0746 H   0  0  0  0  0  0  0  0  0  0  0  0
   -1.8253    5.4105    4.2330 H   0  0  0  0  0  0  0  0  0  0  0  0
   -0.9738   -0.9884    3.2751 H   0  0  0  0  0  0  0  0  0  0  0  0
   -2.3739   -0.0701    3.0271 H   0  0  0  0  0  0  0  0  0  0  0  0
   -1.8440   -0.4438    4.6970 H   0  0  0  0  0  0  0  0  0  0  0  0
    6.3011    3.7977    6.3241 H   0  0  0  0  0  0  0  0  0  0  0  0
    4.0705    0.0116    7.9304 H   0  0  0  0  0  0  0  0  0  0  0  0
    3.3572   -1.0825    6.7714 H   0  0  0  0  0  0  0  0  0  0  0  0
    3.2545    0.6936    6.5212 H   0  0  0  0  0  0  0  0  0  0  0  0
    6.1334   -2.3969    1.8489 H   0  0  0  0  0  0  0  0  0  0  0  0
    6.9129   -3.7675    2.6003 H   0  0  0  0  0  0  0  0  0  0  0  0
    7.3236   -2.1579    3.1077 H   0  0  0  0  0  0  0  0  0  0  0  0
   -0.4789    1.7618    5.8359 H   0  0  0  0  0  0  0  0  0  0  0  0
   -2.9782    3.5268    4.9111 H   0  0  0  0  0  0  0  0  0  0  0  0
   -3.2072    1.8191    4.8435 H   0  0  0  0  0  0  0  0  0  0  0  0
    1.2277   -0.5113    5.8421 H   0  0  0  0  0  0  0  0  0  0  0  0
    2.1153   -0.1850    4.3650 H   0  0  0  0  0  0  0  0  0  0  0  0
    0.6522   -1.1710    4.3158 H   0  0  0  0  0  0  0  0  0  0  0  0
    6.3107    4.9687    1.6349 H   0  0  0  0  0  0  0  0  0  0  0  0
    5.2615    5.8065    4.6876 H   0  0  0  0  0  0  0  0  0  0  0  0
    8.2315    5.2075    5.3491 H   0  0  0  0  0  0  0  0  0  0  0  0
    7.1865    6.0741    3.4864 H   0  0  0  0  0  0  0  0  0  0  0  0
    8.5114    5.1635    2.8389 H   0  0  0  0  0  0  0  0  0  0  0  0
    7.3843    2.2896    2.6074 H   0  0  0  0  0  0  0  0  0  0  0  0
    8.0409    3.2800    1.2955 H   0  0  0  0  0  0  0  0  0  0  0  0
    6.4390    2.5814    1.1586 H   0  0  0  0  0  0  0  0  0  0  0  0
   -4.0752    0.8476    2.9406 H   0  0  0  0  0  0  0  0  0  0  0  0
   -3.1188    1.6288    1.6528 H   0  0  0  0  0  0  0  0  0  0  0  0
   -5.0290    4.0667    4.5142 H   0  0  0  0  0  0  0  0  0  0  0  0
   -5.4026    2.3310    4.5527 H   0  0  0  0  0  0  0  0  0  0  0  0
   -5.9757    3.3685    3.2400 H   0  0  0  0  0  0  0  0  0  0  0  0
    9.4652    1.9589    6.3093 H   0  0  0  0  0  0  0  0  0  0  0  0
    8.0650    2.8138    6.9027 H   0  0  0  0  0  0  0  0  0  0  0  0
    9.5859    3.6960    6.6493 H   0  0  0  0  0  0  0  0  0  0  0  0
   10.2759    2.2019    4.1753 H   0  0  0  0  0  0  0  0  0  0  0  0
   10.4522    3.9684    4.2610 H   0  0  0  0  0  0  0  0  0  0  0  0
    9.5325    3.1863    2.9645 H   0  0  0  0  0  0  0  0  0  0  0  0
   -5.2388    3.7403    0.7894 H   0  0  0  0  0  0  0  0  0  0  0  0
   -5.4269   -0.4776    1.6712 H   0  0  0  0  0  0  0  0  0  0  0  0
   -7.4943    3.6244   -0.1993 H   0  0  0  0  0  0  0  0  0  0  0  0
   -7.6135   -0.6102    0.6468 H   0  0  0  0  0  0  0  0  0  0  0  0
   -9.7889   -0.6772    0.0437 H   0  0  0  0  0  0  0  0  0  0  0  0
  -11.7505   -0.6655   -1.8617 H   0  0  0  0  0  0  0  0  0  0  0  0
  -12.8963    0.6757   -1.7229 H   0  0  0  0  0  0  0  0  0  0  0  0
  -13.5167   -0.0572    0.5750 H   0  0  0  0  0  0  0  0  0  0  0  0
  -12.2920   -1.3219    0.5442 H   0  0  0  0  0  0  0  0  0  0  0  0
  -13.4220   -2.4065   -1.3981 H   0  0  0  0  0  0  0  0  0  0  0  0
  -14.6583   -1.1480   -1.3905 H   0  0  0  0  0  0  0  0  0  0  0  0
  -15.3112   -1.8116    0.9381 H   0  0  0  0  0  0  0  0  0  0  0  0
  -14.0741   -3.0701    0.9244 H   0  0  0  0  0  0  0  0  0  0  0  0
  -15.1756   -4.1364   -1.0541 H   0  0  0  0  0  0  0  0  0  0  0  0
  -16.4135   -2.8896   -1.0528 H   0  0  0  0  0  0  0  0  0  0  0  0
  -17.1270   -3.5921    1.2451 H   0  0  0  0  0  0  0  0  0  0  0  0
  -15.8821   -4.8585    1.2371 H   0  0  0  0  0  0  0  0  0  0  0  0
  -18.5075   -5.6141    1.6923 H   0  0  0  0  0  0  0  0  0  0  0  0
  -19.0746   -6.5895   -0.8220 H   0  0  0  0  0  0  0  0  0  0  0  0
  1  2  2  0  0  0  0
  2  3  1  0  0  0  0
  2  4  1  0  0  0  0
  3  5  1  0  0  0  0
  4  6  1  1  0  0  0
  4  7  1  0  0  0  0
  4 78  1  0  0  0  0
  5  8  1  1  0  0  0
  5  9  1  0  0  0  0
  5 79  1  0  0  0  0
  6 10  1  0  0  0  0
  6 11  1  1  0  0  0
  6 80  1  0  0  0  0
  7 81  1  0  0  0  0
  7 82  1  0  0  0  0
  7 83  1  0  0  0  0
  8 12  1  0  0  0  0
  8 13  1  1  0  0  0
  8 14  1  0  0  0  0
  9 15  1  0  0  0  0
  9 84  1  0  0  0  0
  9 85  1  0  0  0  0
 11 17  1  1  0  0  0
 11 18  1  0  0  0  0
 11 86  1  0  0  0  0
 12 87  1  0  0  0  0
 13 20  1  1  0  0  0
 13 19  1  0  0  0  0
 13 88  1  0  0  0  0
 14 89  1  0  0  0  0
 14 90  1  0  0  0  0
 14 91  1  0  0  0  0
 15 92  1  0  0  0  0
 15 93  1  0  0  0  0
 15 94  1  0  0  0  0
 16 10  1  0  0  0  0
 16 21  1  0  0  0  0
 16 22  1  0  0  0  0
 16 95  1  6  0  0  0
 17 23  1  0  0  0  0
 17 24  1  1  0  0  0
 17 96  1  0  0  0  0
 18 97  1  0  0  0  0
 18 98  1  0  0  0  0
 18 99  1  0  0  0  0
 19100  1  0  0  0  0
 20 25  1  0  0  0  0
 20 26  1  0  0  0  0
 20101  1  6  0  0  0
 21 27  1  0  0  0  0
 22 28  1  0  0  0  0
 22102  1  0  0  0  0
 22103  1  0  0  0  0
 24 30  1  1  0  0  0
 24 31  1  0  0  0  0
 24 32  1  0  0  0  0
 25 33  2  0  0  0  0
 25 34  1  0  0  0  0
 26104  1  0  0  0  0
 26105  1  0  0  0  0
 26106  1  0  0  0  0
 27 35  1  1  0  0  0
 27 36  1  0  0  0  0
 27107  1  0  0  0  0
 28 37  1  0  0  0  0
 28 38  1  0  0  0  0
 28 35  1  1  0  0  0
 29 23  1  0  0  0  0
 29 39  1  0  0  0  0
 29 40  1  1  0  0  0
 29108  1  0  0  0  0
 30 41  1  0  0  0  0
 31 34  1  0  0  0  0
 31109  1  0  0  0  0
 31110  1  0  0  0  0
 32111  1  0  0  0  0
 32112  1  0  0  0  0
 32113  1  0  0  0  0
 34 42  1  0  0  0  0
 34114  1  1  0  0  0
 35 43  1  1  0  0  0
 35 44  1  0  0  0  0
 36115  1  0  0  0  0
 36116  1  0  0  0  0
 36117  1  0  0  0  0
 37 45  1  0  0  0  0
 38118  1  0  0  0  0
 38119  1  0  0  0  0
 38120  1  0  0  0  0
 39 46  1  0  0  0  0
 40 48  1  6  0  0  0
 40 47  1  0  0  0  0
 40121  1  0  0  0  0
 41122  1  0  0  0  0
 41123  1  0  0  0  0
 41124  1  0  0  0  0
 42125  1  0  0  0  0
 42126  1  0  0  0  0
 42127  1  0  0  0  0
 43128  1  0  0  0  0
 44 49  1  0  0  0  0
 44129  1  0  0  0  0
 44130  1  0  0  0  0
 45131  1  0  0  0  0
 45132  1  0  0  0  0
 45133  1  0  0  0  0
 46 50  1  0  0  0  0
 46 51  1  0  0  0  0
 46134  1  6  0  0  0
 47135  1  0  0  0  0
 48 50  1  0  0  0  0
 48 52  1  0  0  0  0
 48136  1  1  0  0  0
 49 53  1  0  0  0  0
 49 54  1  0  0  0  0
 50137  1  0  0  0  0
 50138  1  0  0  0  0
 51139  1  0  0  0  0
 51140  1  0  0  0  0
 51141  1  0  0  0  0
 52 55  1  0  0  0  0
 52 56  1  0  0  0  0
 53 57  1  0  0  0  0
 53142  1  0  0  0  0
 53143  1  0  0  0  0
 54144  1  0  0  0  0
 54145  1  0  0  0  0
 54146  1  0  0  0  0
 55147  1  0  0  0  0
 55148  1  0  0  0  0
 55149  1  0  0  0  0
 56150  1  0  0  0  0
 56151  1  0  0  0  0
 56152  1  0  0  0  0
 57 58  2  0  0  0  0
 57 59  1  0  0  0  0
 58 60  1  0  0  0  0
 58153  1  0  0  0  0
 59 61  2  0  0  0  0
 59154  1  0  0  0  0
 60 62  2  0  0  0  0
 60155  1  0  0  0  0
 61 62  1  0  0  0  0
 61156  1  0  0  0  0
 62 63  1  0  0  0  0
 63 64  1  0  0  0  0
 63 65  2  0  0  0  0
 64 66  2  0  0  0  0
 65 67  1  0  0  0  0
 65157  1  0  0  0  0
 66 67  1  0  0  0  0
 67 68  1  0  0  0  0
 68 69  1  0  0  0  0
 68158  1  0  0  0  0
 68159  1  0  0  0  0
 69 70  1  0  0  0  0
 69160  1  0  0  0  0
 69161  1  0  0  0  0
 70 71  1  0  0  0  0
 70162  1  0  0  0  0
 70163  1  0  0  0  0
 71 72  1  0  0  0  0
 71164  1  0  0  0  0
 71165  1  0  0  0  0
 72 73  1  0  0  0  0
 72166  1  0  0  0  0
 72167  1  0  0  0  0
 73 74  1  0  0  0  0
 73168  1  0  0  0  0
 73169  1  0  0  0  0
 74 75  2  0  0  0  0
 74 76  1  0  0  0  0
 76 77  1  0  0  0  0
 76170  1  0  0  0  0
 77171  1  0  0  0  0
M  END
>  <Molecule Name>
2337321

>  <MolRegNo>
2337321

>  <m>
=

>  <Value>
690

>  <Unit>
nM

>  <Type>
IC50

>  <pValue>
6.16

>  <Ligand Efficiency>
0

>  <Binding Efficiency>
0

>  <Surface Efficiency>
0

>  <Assay Index>
977534

>  <Assay Category>


>  <Assay Organism>
Homo sapiens

>  <Target ID>
80224

>  <Target Name>
MCF7

>  <Target Organism>
Homo sapiens

>  <Target Description>
Target is a specific cell-line

>  <Sequence Accession>


>  <Reference>
Bioorg. Med. Chem. 23 (24), 7543-7564 (2015)

>  <Pubmed ID>
26585275

>  <DOI>
10.1016/j.bmc.2015.10.045

$$$$
2337321
 OpenBabel03252423463D

171175  0  0  0  0  0  0  0  0999 V2000
    0.6128   -0.3197   -0.1329 O   0  0  0  0  0  0  0  0  0  0  0  0
    1.8344   -0.2723   -0.0990 C   0  0  0  0  0  0  0  0  0  0  0  0
    2.6375   -1.3473   -0.3358 O   0  0  0  0  0  0  0  0  0  0  0  0
    2.6361    0.9785    0.2346 C   0  0  2  0  0  0  0  0  0  0  0  0
    1.9642   -2.5646   -0.7714 C   0  0  2  0  0  0  0  0  0  0  0  0
    2.7405    1.1080    1.8442 C   0  0  2  0  0  0  0  0  0  0  0  0
    2.0720    2.0722   -0.6967 C   0  0  0  0  0  0  0  0  0  0  0  0
    2.7632   -3.8102   -0.2164 C   0  0  2  0  0  0  0  0  0  0  0  0
    1.8510   -2.5644   -2.3177 C   0  0  0  0  0  0  0  0  0  0  0  0
    2.0468    2.2290    2.4235 O   0  0  0  0  0  0  0  0  0  0  0  0
    4.2492    1.0501    2.3924 C   0  0  1  0  0  0  0  0  0  0  0  0
    2.1469   -5.0128   -0.7180 O   0  0  0  0  0  0  0  0  0  0  0  0
    2.7475   -3.9233    1.3872 C   0  0  2  0  0  0  0  0  0  0  0  0
    4.1807   -3.7921   -0.8286 C   0  0  0  0  0  0  0  0  0  0  0  0
    1.0366   -1.4198   -2.9107 C   0  0  0  0  0  0  0  0  0  0  0  0
    0.6767    2.3532    2.0412 C   0  0  2  0  0  0  0  0  0  0  0  0
    4.5545    1.0770    3.9947 C   0  0  2  0  0  0  0  0  0  0  0  0
    4.9602   -0.1107    1.7065 C   0  0  0  0  0  0  0  0  0  0  0  0
    2.2844   -2.7202    2.0061 O   0  0  0  0  0  0  0  0  0  0  0  0
    4.0910   -4.3549    2.0214 C   0  0  1  0  0  0  0  0  0  0  0  0
    0.0682    3.5709    2.3712 O   0  0  0  0  0  0  0  0  0  0  0  0
   -0.2180    1.1744    2.3101 C   0  0  0  0  0  0  0  0  0  0  0  0
    5.5982    2.0663    4.2788 O   0  0  0  0  0  0  0  0  0  0  0  0
    5.1706   -0.2646    4.7544 C   0  0  1  0  0  0  0  0  0  0  0  0
    4.2754   -3.9548    3.4888 C   0  0  0  0  0  0  0  0  0  0  0  0
    4.3657   -5.8545    1.9109 C   0  0  0  0  0  0  0  0  0  0  0  0
   -0.5551    3.7089    3.6380 C   0  0  2  0  0  0  0  0  0  0  0  0
   -0.7048    1.0733    3.7396 C   0  0  2  0  0  0  0  0  0  0  0  0
    5.2552    3.4364    4.3850 C   0  0  2  0  0  0  0  0  0  0  0  0
    5.0715   -0.1107    6.2151 O   0  0  0  0  0  0  0  0  0  0  0  0
    4.5313   -1.6388    4.3651 C   0  0  0  0  0  0  0  0  0  0  0  0
    6.7183   -0.2723    4.6635 C   0  0  0  0  0  0  0  0  0  0  0  0
    3.5738   -4.4644    4.3687 O   0  0  0  0  0  0  0  0  0  0  0  0
    5.3341   -2.8822    3.8663 C   0  0  2  0  0  0  0  0  0  0  0  0
   -1.3558    2.4598    4.1972 C   0  0  1  0  0  0  0  0  0  0  0  0
   -1.3419    4.9991    3.4136 C   0  0  0  0  0  0  0  0  0  0  0  0
    0.4166    0.9115    4.6565 O   0  0  0  0  0  0  0  0  0  0  0  0
   -1.5642   -0.2062    3.7868 C   0  0  0  0  0  0  0  0  0  0  0  0
    5.2274    4.0815    3.1062 O   0  0  0  0  0  0  0  0  0  0  0  0
    6.2053    4.2513    5.3292 C   0  0  2  0  0  0  0  0  0  0  0  0
    3.8213   -0.1196    6.8731 C   0  0  0  0  0  0  0  0  0  0  0  0
    6.4299   -2.7536    2.8013 C   0  0  0  0  0  0  0  0  0  0  0  0
   -1.0849    2.5167    5.6674 O   0  0  0  0  0  0  0  0  0  0  0  0
   -2.9129    2.5993    4.2880 C   0  0  0  0  0  0  0  0  0  0  0  0
    1.1133   -0.3093    4.7601 C   0  0  0  0  0  0  0  0  0  0  0  0
    6.4995    4.2710    2.4741 C   0  0  1  0  0  0  0  0  0  0  0  0
    5.6512    5.5821    5.5126 O   0  0  0  0  0  0  0  0  0  0  0  0
    7.6597    4.4149    4.7684 C   0  0  2  0  0  0  0  0  0  0  0  0
   -3.9643    2.7988    3.2441 N   0  0  0  0  0  0  0  0  0  0  0  0
    7.5050    5.0154    3.3543 C   0  0  0  0  0  0  0  0  0  0  0  0
    7.0886    2.9960    1.8836 C   0  0  0  0  0  0  0  0  0  0  0  0
    8.4740    3.1727    4.8856 N   0  0  0  0  0  0  0  0  0  0  0  0
   -4.0611    1.6117    2.3857 C   0  0  0  0  0  0  0  0  0  0  0  0
   -5.2138    2.9928    4.0286 C   0  0  0  0  0  0  0  0  0  0  0  0
    8.8560    2.9158    6.2823 C   0  0  0  0  0  0  0  0  0  0  0  0
    9.6864    3.1123    4.0669 C   0  0  0  0  0  0  0  0  0  0  0  0
   -5.2068    1.4147    1.4143 C   0  0  0  0  0  0  0  0  0  0  0  0
   -6.1807    2.3627    1.0842 C   0  0  0  0  0  0  0  0  0  0  0  0
   -5.3437    0.1215    0.8846 C   0  0  0  0  0  0  0  0  0  0  0  0
   -7.3808    1.9554    0.4927 C   0  0  0  0  0  0  0  0  0  0  0  0
   -6.5175   -0.2649    0.2367 C   0  0  0  0  0  0  0  0  0  0  0  0
   -7.5779    0.6157    0.1302 C   0  0  0  0  0  0  0  0  0  0  0  0
   -8.8825    0.1517   -0.2903 C   0  0  0  0  0  0  0  0  0  0  0  0
  -10.0389    0.8859   -0.2811 N   0  0  0  0  0  0  0  0  0  0  0  0
   -9.1718   -1.1269   -0.7141 C   0  0  0  0  0  0  0  0  0  0  0  0
  -11.0218    0.1251   -0.7510 N   0  0  0  0  0  0  0  0  0  0  0  0
  -10.4884   -1.0673   -1.0559 N   0  0  0  0  0  0  0  0  0  0  0  0
  -11.1914   -2.0228   -1.8768 C   0  0  0  0  0  0  0  0  0  0  0  0
  -11.4902   -3.3332   -1.1562 C   0  0  0  0  0  0  0  0  0  0  0  0
  -12.0554   -4.3536   -2.1405 C   0  0  0  0  0  0  0  0  0  0  0  0
  -12.3612   -5.6831   -1.4537 C   0  0  0  0  0  0  0  0  0  0  0  0
  -12.9442   -6.6820   -2.4491 C   0  0  0  0  0  0  0  0  0  0  0  0
  -13.2953   -8.0111   -1.7839 C   0  0  0  0  0  0  0  0  0  0  0  0
  -13.8946   -8.9674   -2.7882 C   0  0  0  0  0  0  0  0  0  0  0  0
  -14.1189   -8.7024   -3.9592 O   0  0  0  0  0  0  0  0  0  0  0  0
  -14.2052  -10.2101   -2.2629 N   0  0  0  0  0  0  0  0  0  0  0  0
  -14.6706  -11.1512   -3.2140 O   0  0  0  0  0  0  0  0  0  0  0  0
    3.6319    0.8482   -0.1811 H   0  0  0  0  0  0  0  0  0  0  0  0
    0.9491   -2.6191   -0.3558 H   0  0  0  0  0  0  0  0  0  0  0  0
    2.2952    0.2070    2.2722 H   0  0  0  0  0  0  0  0  0  0  0  0
    0.9793    2.0430   -0.8095 H   0  0  0  0  0  0  0  0  0  0  0  0
    2.4158    1.8844   -1.7230 H   0  0  0  0  0  0  0  0  0  0  0  0
    2.3907    3.0776   -0.4157 H   0  0  0  0  0  0  0  0  0  0  0  0
    1.4009   -3.5070   -2.6520 H   0  0  0  0  0  0  0  0  0  0  0  0
    2.8434   -2.4910   -2.7724 H   0  0  0  0  0  0  0  0  0  0  0  0
    4.6713    1.9699    2.0026 H   0  0  0  0  0  0  0  0  0  0  0  0
    1.2350   -5.0530   -0.3748 H   0  0  0  0  0  0  0  0  0  0  0  0
    1.9976   -4.6742    1.6673 H   0  0  0  0  0  0  0  0  0  0  0  0
    4.1515   -3.8687   -1.9183 H   0  0  0  0  0  0  0  0  0  0  0  0
    4.7721   -4.6644   -0.5359 H   0  0  0  0  0  0  0  0  0  0  0  0
    4.7312   -2.8845   -0.5605 H   0  0  0  0  0  0  0  0  0  0  0  0
    0.0452   -1.3587   -2.4607 H   0  0  0  0  0  0  0  0  0  0  0  0
    0.9117   -1.5700   -3.9826 H   0  0  0  0  0  0  0  0  0  0  0  0
    1.5527   -0.4497   -2.7784 H   0  0  0  0  0  0  0  0  0  0  0  0
    0.6757    2.4643    0.9771 H   0  0  0  0  0  0  0  0  0  0  0  0
    3.6558    1.4035    4.5234 H   0  0  0  0  0  0  0  0  0  0  0  0
    4.4087   -1.0367    1.8598 H   0  0  0  0  0  0  0  0  0  0  0  0
    5.9820   -0.2062    2.0481 H   0  0  0  0  0  0  0  0  0  0  0  0
    5.0578   -0.0111    0.6279 H   0  0  0  0  0  0  0  0  0  0  0  0
    2.5654   -1.9742    1.4582 H   0  0  0  0  0  0  0  0  0  0  0  0
    4.8704   -3.8596    1.4616 H   0  0  0  0  0  0  0  0  0  0  0  0
    0.2848    0.2450    2.0584 H   0  0  0  0  0  0  0  0  0  0  0  0
   -1.0790    1.2622    1.6398 H   0  0  0  0  0  0  0  0  0  0  0  0
    3.7165   -6.4343    2.5744 H   0  0  0  0  0  0  0  0  0  0  0  0
    5.4019   -6.0611    2.2049 H   0  0  0  0  0  0  0  0  0  0  0  0
    4.2273   -6.2276    0.8937 H   0  0  0  0  0  0  0  0  0  0  0  0
    0.2488    3.9440    4.3473 H   0  0  0  0  0  0  0  0  0  0  0  0
    4.2474    3.5229    4.8094 H   0  0  0  0  0  0  0  0  0  0  0  0
    3.6767   -1.4629    3.7124 H   0  0  0  0  0  0  0  0  0  0  0  0
    4.0518   -2.0425    5.2637 H   0  0  0  0  0  0  0  0  0  0  0  0
    7.1622    0.4817    5.3268 H   0  0  0  0  0  0  0  0  0  0  0  0
    7.1015   -0.0688    3.6648 H   0  0  0  0  0  0  0  0  0  0  0  0
    7.1347   -1.2159    5.0307 H   0  0  0  0  0  0  0  0  0  0  0  0
    5.8522   -3.3014    4.7409 H   0  0  0  0  0  0  0  0  0  0  0  0
   -2.0352    4.9077    2.5733 H   0  0  0  0  0  0  0  0  0  0  0  0
   -0.6472    5.8026    3.1116 H   0  0  0  0  0  0  0  0  0  0  0  0
   -1.8801    5.3554    4.3020 H   0  0  0  0  0  0  0  0  0  0  0  0
   -1.0144   -1.0569    3.3562 H   0  0  0  0  0  0  0  0  0  0  0  0
   -2.4363   -0.1648    3.1467 H   0  0  0  0  0  0  0  0  0  0  0  0
   -1.8363   -0.5017    4.7998 H   0  0  0  0  0  0  0  0  0  0  0  0
    6.2254    3.8055    6.3269 H   0  0  0  0  0  0  0  0  0  0  0  0
    4.0081    0.0356    7.9409 H   0  0  0  0  0  0  0  0  0  0  0  0
    3.2983   -1.0709    6.7861 H   0  0  0  0  0  0  0  0  0  0  0  0
    3.1897    0.7027    6.5301 H   0  0  0  0  0  0  0  0  0  0  0  0
    6.0730   -2.3745    1.8436 H   0  0  0  0  0  0  0  0  0  0  0  0
    6.8648   -3.7389    2.5934 H   0  0  0  0  0  0  0  0  0  0  0  0
    7.2679   -2.1261    3.0957 H   0  0  0  0  0  0  0  0  0  0  0  0
   -0.4736    1.7727    5.8432 H   0  0  0  0  0  0  0  0  0  0  0  0
   -3.0428    3.4679    4.9528 H   0  0  0  0  0  0  0  0  0  0  0  0
   -3.2368    1.7526    4.9144 H   0  0  0  0  0  0  0  0  0  0  0  0
    1.1190   -0.6090    5.8116 H   0  0  0  0  0  0  0  0  0  0  0  0
    2.1434   -0.1273    4.4748 H   0  0  0  0  0  0  0  0  0  0  0  0
    0.7501   -1.1417    4.1591 H   0  0  0  0  0  0  0  0  0  0  0  0
    6.2791    4.9230    1.6213 H   0  0  0  0  0  0  0  0  0  0  0  0
    5.2087    5.8101    4.6711 H   0  0  0  0  0  0  0  0  0  0  0  0
    8.1720    5.1979    5.3505 H   0  0  0  0  0  0  0  0  0  0  0  0
    7.1427    6.0474    3.4709 H   0  0  0  0  0  0  0  0  0  0  0  0
    8.4683    5.1229    2.8437 H   0  0  0  0  0  0  0  0  0  0  0  0
    7.3296    2.2532    2.6461 H   0  0  0  0  0  0  0  0  0  0  0  0
    8.0007    3.2195    1.3245 H   0  0  0  0  0  0  0  0  0  0  0  0
    6.3986    2.5242    1.1848 H   0  0  0  0  0  0  0  0  0  0  0  0
   -4.1437    0.7454    3.0540 H   0  0  0  0  0  0  0  0  0  0  0  0
   -3.1469    1.5343    1.7928 H   0  0  0  0  0  0  0  0  0  0  0  0
   -5.1269    3.8889    4.6549 H   0  0  0  0  0  0  0  0  0  0  0  0
   -5.4275    2.1377    4.6834 H   0  0  0  0  0  0  0  0  0  0  0  0
   -6.1039    3.1682    3.4276 H   0  0  0  0  0  0  0  0  0  0  0  0
    9.3749    1.9531    6.3641 H   0  0  0  0  0  0  0  0  0  0  0  0
    7.9883    2.8403    6.9411 H   0  0  0  0  0  0  0  0  0  0  0  0
    9.5214    3.6955    6.6730 H   0  0  0  0  0  0  0  0  0  0  0  0
   10.1941    2.1527    4.2267 H   0  0  0  0  0  0  0  0  0  0  0  0
   10.3922    3.9168    4.2882 H   0  0  0  0  0  0  0  0  0  0  0  0
    9.4681    3.1291    2.9989 H   0  0  0  0  0  0  0  0  0  0  0  0
   -6.0637    3.4057    1.3713 H   0  0  0  0  0  0  0  0  0  0  0  0
   -4.5509   -0.6141    1.0300 H   0  0  0  0  0  0  0  0  0  0  0  0
   -8.1817    2.6822    0.3671 H   0  0  0  0  0  0  0  0  0  0  0  0
   -6.5776   -1.2957   -0.1047 H   0  0  0  0  0  0  0  0  0  0  0  0
   -8.5814   -2.0194   -0.8533 H   0  0  0  0  0  0  0  0  0  0  0  0
  -10.5443   -2.2058   -2.7441 H   0  0  0  0  0  0  0  0  0  0  0  0
  -12.1114   -1.5555   -2.2407 H   0  0  0  0  0  0  0  0  0  0  0  0
  -12.1997   -3.1559   -0.3381 H   0  0  0  0  0  0  0  0  0  0  0  0
  -10.5780   -3.7381   -0.7014 H   0  0  0  0  0  0  0  0  0  0  0  0
  -11.3304   -4.5198   -2.9482 H   0  0  0  0  0  0  0  0  0  0  0  0
  -12.9655   -3.9541   -2.6044 H   0  0  0  0  0  0  0  0  0  0  0  0
  -13.0702   -5.5196   -0.6338 H   0  0  0  0  0  0  0  0  0  0  0  0
  -11.4428   -6.0918   -1.0156 H   0  0  0  0  0  0  0  0  0  0  0  0
  -12.2268   -6.8550   -3.2604 H   0  0  0  0  0  0  0  0  0  0  0  0
  -13.8425   -6.2534   -2.9107 H   0  0  0  0  0  0  0  0  0  0  0  0
  -14.0200   -7.8455   -0.9777 H   0  0  0  0  0  0  0  0  0  0  0  0
  -12.3981   -8.4677   -1.3526 H   0  0  0  0  0  0  0  0  0  0  0  0
  -13.7791  -10.5829   -1.4266 H   0  0  0  0  0  0  0  0  0  0  0  0
  -14.6767  -10.6215   -4.0404 H   0  0  0  0  0  0  0  0  0  0  0  0
  1  2  2  0  0  0  0
  2  3  1  0  0  0  0
  2  4  1  0  0  0  0
  3  5  1  0  0  0  0
  4  6  1  1  0  0  0
  4  7  1  0  0  0  0
  4 78  1  0  0  0  0
  5  8  1  1  0  0  0
  5  9  1  0  0  0  0
  5 79  1  0  0  0  0
  6 10  1  0  0  0  0
  6 11  1  1  0  0  0
  6 80  1  0  0  0  0
  7 81  1  0  0  0  0
  7 82  1  0  0  0  0
  7 83  1  0  0  0  0
  8 12  1  0  0  0  0
  8 13  1  1  0  0  0
  8 14  1  0  0  0  0
  9 15  1  0  0  0  0
  9 84  1  0  0  0  0
  9 85  1  0  0  0  0
 11 17  1  1  0  0  0
 11 18  1  0  0  0  0
 11 86  1  0  0  0  0
 12 87  1  0  0  0  0
 13 20  1  1  0  0  0
 13 19  1  0  0  0  0
 13 88  1  0  0  0  0
 14 89  1  0  0  0  0
 14 90  1  0  0  0  0
 14 91  1  0  0  0  0
 15 92  1  0  0  0  0
 15 93  1  0  0  0  0
 15 94  1  0  0  0  0
 16 10  1  0  0  0  0
 16 21  1  0  0  0  0
 16 22  1  0  0  0  0
 16 95  1  6  0  0  0
 17 23  1  0  0  0  0
 17 24  1  1  0  0  0
 17 96  1  0  0  0  0
 18 97  1  0  0  0  0
 18 98  1  0  0  0  0
 18 99  1  0  0  0  0
 19100  1  0  0  0  0
 20 25  1  0  0  0  0
 20 26  1  0  0  0  0
 20101  1  6  0  0  0
 21 27  1  0  0  0  0
 22 28  1  0  0  0  0
 22102  1  0  0  0  0
 22103  1  0  0  0  0
 24 30  1  1  0  0  0
 24 31  1  0  0  0  0
 24 32  1  0  0  0  0
 25 33  2  0  0  0  0
 25 34  1  0  0  0  0
 26104  1  0  0  0  0
 26105  1  0  0  0  0
 26106  1  0  0  0  0
 27 35  1  1  0  0  0
 27 36  1  0  0  0  0
 27107  1  0  0  0  0
 28 37  1  0  0  0  0
 28 38  1  0  0  0  0
 28 35  1  1  0  0  0
 29 23  1  0  0  0  0
 29 39  1  0  0  0  0
 29 40  1  1  0  0  0
 29108  1  0  0  0  0
 30 41  1  0  0  0  0
 31 34  1  0  0  0  0
 31109  1  0  0  0  0
 31110  1  0  0  0  0
 32111  1  0  0  0  0
 32112  1  0  0  0  0
 32113  1  0  0  0  0
 34 42  1  0  0  0  0
 34114  1  1  0  0  0
 35 43  1  1  0  0  0
 35 44  1  0  0  0  0
 36115  1  0  0  0  0
 36116  1  0  0  0  0
 36117  1  0  0  0  0
 37 45  1  0  0  0  0
 38118  1  0  0  0  0
 38119  1  0  0  0  0
 38120  1  0  0  0  0
 39 46  1  0  0  0  0
 40 48  1  6  0  0  0
 40 47  1  0  0  0  0
 40121  1  0  0  0  0
 41122  1  0  0  0  0
 41123  1  0  0  0  0
 41124  1  0  0  0  0
 42125  1  0  0  0  0
 42126  1  0  0  0  0
 42127  1  0  0  0  0
 43128  1  0  0  0  0
 44 49  1  0  0  0  0
 44129  1  0  0  0  0
 44130  1  0  0  0  0
 45131  1  0  0  0  0
 45132  1  0  0  0  0
 45133  1  0  0  0  0
 46 50  1  0  0  0  0
 46 51  1  0  0  0  0
 46134  1  6  0  0  0
 47135  1  0  0  0  0
 48 50  1  0  0  0  0
 48 52  1  0  0  0  0
 48136  1  1  0  0  0
 49 53  1  0  0  0  0
 49 54  1  0  0  0  0
 50137  1  0  0  0  0
 50138  1  0  0  0  0
 51139  1  0  0  0  0
 51140  1  0  0  0  0
 51141  1  0  0  0  0
 52 55  1  0  0  0  0
 52 56  1  0  0  0  0
 53 57  1  0  0  0  0
 53142  1  0  0  0  0
 53143  1  0  0  0  0
 54144  1  0  0  0  0
 54145  1  0  0  0  0
 54146  1  0  0  0  0
 55147  1  0  0  0  0
 55148  1  0  0  0  0
 55149  1  0  0  0  0
 56150  1  0  0  0  0
 56151  1  0  0  0  0
 56152  1  0  0  0  0
 57 58  2  0  0  0  0
 57 59  1  0  0  0  0
 58 60  1  0  0  0  0
 58153  1  0  0  0  0
 59 61  2  0  0  0  0
 59154  1  0  0  0  0
 60 62  2  0  0  0  0
 60155  1  0  0  0  0
 61 62  1  0  0  0  0
 61156  1  0  0  0  0
 62 63  1  0  0  0  0
 63 64  1  0  0  0  0
 63 65  2  0  0  0  0
 64 66  2  0  0  0  0
 65 67  1  0  0  0  0
 65157  1  0  0  0  0
 66 67  1  0  0  0  0
 67 68  1  0  0  0  0
 68 69  1  0  0  0  0
 68158  1  0  0  0  0
 68159  1  0  0  0  0
 69 70  1  0  0  0  0
 69160  1  0  0  0  0
 69161  1  0  0  0  0
 70 71  1  0  0  0  0
 70162  1  0  0  0  0
 70163  1  0  0  0  0
 71 72  1  0  0  0  0
 71164  1  0  0  0  0
 71165  1  0  0  0  0
 72 73  1  0  0  0  0
 72166  1  0  0  0  0
 72167  1  0  0  0  0
 73 74  1  0  0  0  0
 73168  1  0  0  0  0
 73169  1  0  0  0  0
 74 75  2  0  0  0  0
 74 76  1  0  0  0  0
 76 77  1  0  0  0  0
 76170  1  0  0  0  0
 77171  1  0  0  0  0
M  END
>  <Molecule Name>
2337321

>  <MolRegNo>
2337321

>  <m>
=

>  <Value>
1550

>  <Unit>
nM

>  <Type>
IC50

>  <pValue>
5.81

>  <Ligand Efficiency>
0

>  <Binding Efficiency>
0

>  <Surface Efficiency>
0

>  <Assay Index>
977535

>  <Assay Category>


>  <Assay Organism>
Chlorocebus sabaeus

>  <Target ID>
80583

>  <Target Name>
Vero

>  <Target Organism>
Chlorocebus sabaeus

>  <Target Description>
Target is a specific cell-line

>  <Sequence Accession>


>  <Reference>
Bioorg. Med. Chem. 23 (24), 7543-7564 (2015)

>  <Pubmed ID>
26585275

>  <DOI>
10.1016/j.bmc.2015.10.045

$$$$
2337358
 OpenBabel03252423463D

171175  0  0  0  0  0  0  0  0999 V2000
   -0.0419    4.7048    2.3806 O   0  0  0  0  0  0  0  0  0  0  0  0
   -0.4101    3.5936    2.0422 C   0  0  0  0  0  0  0  0  0  0  0  0
   -1.6863    3.3180    1.6696 O   0  0  0  0  0  0  0  0  0  0  0  0
    0.4442    2.3180    2.1298 C   0  0  2  0  0  0  0  0  0  0  0  0
   -2.5596    4.4612    1.4295 C   0  0  2  0  0  0  0  0  0  0  0  0
    1.1634    2.3057    3.6114 C   0  0  2  0  0  0  0  0  0  0  0  0
    1.1686    2.0361    0.8100 C   0  0  0  0  0  0  0  0  0  0  0  0
   -3.9482    4.2168    2.1376 C   0  0  2  0  0  0  0  0  0  0  0  0
   -2.6541    4.6361   -0.1046 C   0  0  0  0  0  0  0  0  0  0  0  0
    2.5861    2.2037    3.5713 O   0  0  0  0  0  0  0  0  0  0  0  0
    0.5554    1.1789    4.5636 C   0  0  1  0  0  0  0  0  0  0  0  0
   -4.8785    5.2236    1.6765 O   0  0  0  0  0  0  0  0  0  0  0  0
   -3.9017    4.3478    3.7509 C   0  0  2  0  0  0  0  0  0  0  0  0
   -4.5271    2.8827    1.6230 C   0  0  0  0  0  0  0  0  0  0  0  0
   -1.3049    4.9252   -0.7572 C   0  0  0  0  0  0  0  0  0  0  0  0
    3.2910    3.4400    3.3624 C   0  0  1  0  0  0  0  0  0  0  0  0
    0.6761    1.3172    6.2311 C   0  0  2  0  0  0  0  0  0  0  0  0
   -0.8996    1.1017    4.0986 C   0  0  0  0  0  0  0  0  0  0  0  0
   -2.5799    4.5792    4.2453 O   0  0  0  0  0  0  0  0  0  0  0  0
   -4.5810    3.2023    4.5437 C   0  0  1  0  0  0  0  0  0  0  0  0
    4.6977    3.2178    3.4460 O   0  0  0  0  0  0  0  0  0  0  0  0
    2.9968    3.8876    1.9721 C   0  0  0  0  0  0  0  0  0  0  0  0
    2.0515    0.9621    6.7253 O   0  0  0  0  0  0  0  0  0  0  0  0
   -0.6910    0.5527    6.9228 C   0  0  1  0  0  0  0  0  0  0  0  0
   -4.0053    2.8744    5.9450 C   0  0  0  0  0  0  0  0  0  0  0  0
   -6.1003    3.4160    4.6715 C   0  0  0  0  0  0  0  0  0  0  0  0
    5.5657    4.3227    3.1124 C   0  0  1  0  0  0  0  0  0  0  0  0
    3.7160    5.1093    1.5095 C   0  0  1  0  0  0  0  0  0  0  0  0
    2.5324    1.3000    8.0872 C   0  0  2  0  0  0  0  0  0  0  0  0
   -0.3845    0.3668    8.3276 O   0  0  0  0  0  0  0  0  0  0  0  0
   -1.9141    1.6410    6.7870 C   0  0  0  0  0  0  0  0  0  0  0  0
   -0.9887   -0.8735    6.3503 C   0  0  0  0  0  0  0  0  0  0  0  0
   -4.0600    3.7172    6.8463 O   0  0  0  0  0  0  0  0  0  0  0  0
   -3.4129    1.4450    6.2613 C   0  0  2  0  0  0  0  0  0  0  0  0
    5.2336    4.7922    1.6714 C   0  0  2  0  0  0  0  0  0  0  0  0
    5.6265    5.3368    4.2453 C   0  0  0  0  0  0  0  0  0  0  0  0
    3.2962    5.4238    0.1552 O   0  0  0  0  0  0  0  0  0  0  0  0
    3.1350    6.2967    2.3131 C   0  0  0  0  0  0  0  0  0  0  0  0
    2.3185    2.6540    8.5064 O   0  0  0  0  0  0  0  0  0  0  0  0
    4.0470    0.9184    8.5942 C   0  0  2  0  0  0  0  0  0  0  0  0
   -1.3069   -0.3617    9.1337 C   0  0  0  0  0  0  0  0  0  0  0  0
   -3.7993    0.4640    5.1390 C   0  0  0  0  0  0  0  0  0  0  0  0
    5.5026    3.6228    0.8309 O   0  0  0  0  0  0  0  0  0  0  0  0
    6.0475    5.9715    1.1333 C   0  0  0  0  0  0  0  0  0  0  0  0
    3.5415    4.4860   -0.8832 C   0  0  0  0  0  0  0  0  0  0  0  0
    3.3129    3.6242    8.1629 C   0  0  1  0  0  0  0  0  0  0  0  0
    4.1389    1.0428   10.0544 O   0  0  0  0  0  0  0  0  0  0  0  0
    5.2197    1.7912    8.0750 C   0  0  2  0  0  0  0  0  0  0  0  0
    7.5203    5.8783    1.1655 N   0  0  0  0  0  0  0  0  0  0  0  0
    4.8029    3.2555    8.3486 C   0  0  0  0  0  0  0  0  0  0  0  0
    2.9585    4.2179    6.8197 C   0  0  0  0  0  0  0  0  0  0  0  0
    5.8232    1.5703    6.7545 N   0  0  0  0  0  0  0  0  0  0  0  0
    8.0344    4.8219    0.2859 C   0  0  0  0  0  0  0  0  0  0  0  0
    8.0355    7.1717    0.6980 C   0  0  0  0  0  0  0  0  0  0  0  0
    4.9621    1.4170    5.6042 C   0  0  0  0  0  0  0  0  0  0  0  0
    7.0341    0.7715    6.6162 C   0  0  0  0  0  0  0  0  0  0  0  0
    4.4768    0.0627    5.1341 C   0  0  0  0  0  0  0  0  0  0  0  0
    4.0301   -0.9471    5.9769 C   0  0  0  0  0  0  0  0  0  0  0  0
    4.2482   -0.1124    3.7627 C   0  0  0  0  0  0  0  0  0  0  0  0
    3.3075   -2.0308    5.5246 C   0  0  0  0  0  0  0  0  0  0  0  0
    3.5460   -1.2145    3.2783 C   0  0  0  0  0  0  0  0  0  0  0  0
    3.0947   -2.1780    4.1702 C   0  0  0  0  0  0  0  0  0  0  0  0
    2.5420   -3.4114    3.7150 C   0  0  0  0  0  0  0  0  0  0  0  0
    1.7591   -3.6283    2.6187 N   0  0  0  0  0  0  0  0  0  0  0  0
    2.8697   -4.5878    4.3050 C   0  0  0  0  0  0  0  0  0  0  0  0
    1.5830   -4.9261    2.4973 N   0  0  0  0  0  0  0  0  0  0  0  0
    2.3284   -5.5199    3.4628 N   0  0  0  0  0  0  0  0  0  0  0  0
    2.6925   -6.9210    3.3815 C   0  0  0  0  0  0  0  0  0  0  0  0
    3.4008   -7.2475    2.0715 C   0  0  0  0  0  0  0  0  0  0  0  0
    3.9229   -8.6774    2.0760 C   0  0  0  0  0  0  0  0  0  0  0  0
    4.5974   -9.0203    0.7487 C   0  0  0  0  0  0  0  0  0  0  0  0
    5.0975  -10.4595    0.7790 C   0  0  0  0  0  0  0  0  0  0  0  0
    5.7653  -10.8681   -0.5283 C   0  0  0  0  0  0  0  0  0  0  0  0
    6.2245  -12.3092   -0.4676 C   0  0  0  0  0  0  0  0  0  0  0  0
    6.1100  -13.0355    0.5169 O   0  0  0  0  0  0  0  0  0  0  0  0
    6.7957  -12.7639   -1.6275 N   0  0  0  0  0  0  0  0  0  0  0  0
    7.3183  -14.0766   -1.5771 O   0  0  0  0  0  0  0  0  0  0  0  0
   -0.2602    1.5028    2.0585 H   0  0  0  0  0  0  0  0  0  0  0  0
   -2.1443    5.3930    1.8312 H   0  0  0  0  0  0  0  0  0  0  0  0
    0.9141    3.2441    4.1235 H   0  0  0  0  0  0  0  0  0  0  0  0
    1.4090    2.9470    0.2576 H   0  0  0  0  0  0  0  0  0  0  0  0
    0.5022    1.5094    0.1141 H   0  0  0  0  0  0  0  0  0  0  0  0
    2.0437    1.3942    0.9394 H   0  0  0  0  0  0  0  0  0  0  0  0
   -3.3411    5.4526   -0.3487 H   0  0  0  0  0  0  0  0  0  0  0  0
   -3.0388    3.7232   -0.5720 H   0  0  0  0  0  0  0  0  0  0  0  0
    1.0496    0.2313    4.3193 H   0  0  0  0  0  0  0  0  0  0  0  0
   -4.5619    6.0930    1.9844 H   0  0  0  0  0  0  0  0  0  0  0  0
   -4.4282    5.2745    4.0096 H   0  0  0  0  0  0  0  0  0  0  0  0
   -4.6833    2.9044    0.5400 H   0  0  0  0  0  0  0  0  0  0  0  0
   -5.5219    2.6785    2.0266 H   0  0  0  0  0  0  0  0  0  0  0  0
   -3.8717    2.0357    1.8508 H   0  0  0  0  0  0  0  0  0  0  0  0
   -0.8246    5.7976   -0.3044 H   0  0  0  0  0  0  0  0  0  0  0  0
   -1.4376    5.1228   -1.8255 H   0  0  0  0  0  0  0  0  0  0  0  0
   -0.6279    4.0703   -0.6706 H   0  0  0  0  0  0  0  0  0  0  0  0
    2.9912    4.1532    4.1275 H   0  0  0  0  0  0  0  0  0  0  0  0
    0.5833    2.3816    6.4695 H   0  0  0  0  0  0  0  0  0  0  0  0
   -1.3353    2.0870    3.9279 H   0  0  0  0  0  0  0  0  0  0  0  0
   -1.5522    0.6534    4.7912 H   0  0  0  0  0  0  0  0  0  0  0  0
   -1.0432    0.4414    3.2384 H   0  0  0  0  0  0  0  0  0  0  0  0
   -1.9455    4.0253    3.7723 H   0  0  0  0  0  0  0  0  0  0  0  0
   -4.4586    2.3231    3.9336 H   0  0  0  0  0  0  0  0  0  0  0  0
    1.9575    4.1041    1.8552 H   0  0  0  0  0  0  0  0  0  0  0  0
    3.2567    3.0436    1.3355 H   0  0  0  0  0  0  0  0  0  0  0  0
   -6.3292    4.2543    5.3274 H   0  0  0  0  0  0  0  0  0  0  0  0
   -6.5803    2.5315    5.1141 H   0  0  0  0  0  0  0  0  0  0  0  0
   -6.5664    3.6019    3.7031 H   0  0  0  0  0  0  0  0  0  0  0  0
    6.5648    3.8664    3.0809 H   0  0  0  0  0  0  0  0  0  0  0  0
    1.9086    0.6961    8.7487 H   0  0  0  0  0  0  0  0  0  0  0  0
   -1.5244    2.4685    6.1786 H   0  0  0  0  0  0  0  0  0  0  0  0
   -2.0095    2.1106    7.7766 H   0  0  0  0  0  0  0  0  0  0  0  0
   -0.3154   -1.6294    6.7612 H   0  0  0  0  0  0  0  0  0  0  0  0
   -0.9418   -1.0125    5.2689 H   0  0  0  0  0  0  0  0  0  0  0  0
   -2.0049   -1.1826    6.6236 H   0  0  0  0  0  0  0  0  0  0  0  0
   -3.9885    1.0947    7.1284 H   0  0  0  0  0  0  0  0  0  0  0  0
    4.6523    5.7296    4.5275 H   0  0  0  0  0  0  0  0  0  0  0  0
    6.2920    6.1678    4.0123 H   0  0  0  0  0  0  0  0  0  0  0  0
    6.0015    4.8422    5.1509 H   0  0  0  0  0  0  0  0  0  0  0  0
    3.0898    6.1363    3.3909 H   0  0  0  0  0  0  0  0  0  0  0  0
    2.0905    6.4664    2.0118 H   0  0  0  0  0  0  0  0  0  0  0  0
    3.6589    7.2301    2.1178 H   0  0  0  0  0  0  0  0  0  0  0  0
    4.3151   -0.1201    8.4928 H   0  0  0  0  0  0  0  0  0  0  0  0
   -0.7284   -0.9049    9.8886 H   0  0  0  0  0  0  0  0  0  0  0  0
   -1.9021   -1.1113    8.6074 H   0  0  0  0  0  0  0  0  0  0  0  0
   -1.9791    0.3290    9.6448 H   0  0  0  0  0  0  0  0  0  0  0  0
   -3.3986    0.7333    4.1555 H   0  0  0  0  0  0  0  0  0  0  0  0
   -4.8899    0.4612    5.0021 H   0  0  0  0  0  0  0  0  0  0  0  0
   -3.5167   -0.5676    5.3323 H   0  0  0  0  0  0  0  0  0  0  0  0
    5.4400    2.8393    1.4148 H   0  0  0  0  0  0  0  0  0  0  0  0
    5.7321    6.1698    0.1004 H   0  0  0  0  0  0  0  0  0  0  0  0
    5.7630    6.8507    1.7234 H   0  0  0  0  0  0  0  0  0  0  0  0
    2.8897    4.7518   -1.7257 H   0  0  0  0  0  0  0  0  0  0  0  0
    3.3049    3.4548   -0.6218 H   0  0  0  0  0  0  0  0  0  0  0  0
    4.5738    4.5509   -1.2270 H   0  0  0  0  0  0  0  0  0  0  0  0
    3.1482    4.4462    8.8733 H   0  0  0  0  0  0  0  0  0  0  0  0
    3.2374    1.1433   10.3972 H   0  0  0  0  0  0  0  0  0  0  0  0
    6.0692    1.6507    8.7673 H   0  0  0  0  0  0  0  0  0  0  0  0
    5.0132    3.4221    9.4201 H   0  0  0  0  0  0  0  0  0  0  0  0
    5.4671    3.9759    7.8500 H   0  0  0  0  0  0  0  0  0  0  0  0
    2.7949    3.4398    6.0839 H   0  0  0  0  0  0  0  0  0  0  0  0
    3.7127    4.9233    6.4697 H   0  0  0  0  0  0  0  0  0  0  0  0
    1.9992    4.7409    6.8889 H   0  0  0  0  0  0  0  0  0  0  0  0
    7.7532    3.8211    0.6219 H   0  0  0  0  0  0  0  0  0  0  0  0
    9.1305    4.8196    0.3060 H   0  0  0  0  0  0  0  0  0  0  0  0
    7.7128    4.9479   -0.7558 H   0  0  0  0  0  0  0  0  0  0  0  0
    7.7105    7.9713    1.3730 H   0  0  0  0  0  0  0  0  0  0  0  0
    7.6759    7.4107   -0.3112 H   0  0  0  0  0  0  0  0  0  0  0  0
    9.1281    7.1775    0.6913 H   0  0  0  0  0  0  0  0  0  0  0  0
    5.5640    1.8239    4.7943 H   0  0  0  0  0  0  0  0  0  0  0  0
    4.1011    2.0600    5.7218 H   0  0  0  0  0  0  0  0  0  0  0  0
    7.5347    1.0271    5.6681 H   0  0  0  0  0  0  0  0  0  0  0  0
    6.8279   -0.3019    6.5877 H   0  0  0  0  0  0  0  0  0  0  0  0
    7.7760    0.9669    7.3950 H   0  0  0  0  0  0  0  0  0  0  0  0
    4.1495   -0.9259    7.0298 H   0  0  0  0  0  0  0  0  0  0  0  0
    4.5542    0.6624    3.0640 H   0  0  0  0  0  0  0  0  0  0  0  0
    2.9126   -2.7345    6.2550 H   0  0  0  0  0  0  0  0  0  0  0  0
    3.3478   -1.2950    2.2157 H   0  0  0  0  0  0  0  0  0  0  0  0
    3.5308   -4.8908    5.1257 H   0  0  0  0  0  0  0  0  0  0  0  0
    1.7798   -7.5111    3.5205 H   0  0  0  0  0  0  0  0  0  0  0  0
    3.3621   -7.1272    4.2255 H   0  0  0  0  0  0  0  0  0  0  0  0
    4.2374   -6.5541    1.9105 H   0  0  0  0  0  0  0  0  0  0  0  0
    2.7103   -7.1081    1.2316 H   0  0  0  0  0  0  0  0  0  0  0  0
    3.0931   -9.3703    2.2606 H   0  0  0  0  0  0  0  0  0  0  0  0
    4.6399   -8.8055    2.8967 H   0  0  0  0  0  0  0  0  0  0  0  0
    5.4349   -8.3354    0.5680 H   0  0  0  0  0  0  0  0  0  0  0  0
    3.8851   -8.8879   -0.0746 H   0  0  0  0  0  0  0  0  0  0  0  0
    4.2547  -11.1316    0.9849 H   0  0  0  0  0  0  0  0  0  0  0  0
    5.8063  -10.5810    1.6078 H   0  0  0  0  0  0  0  0  0  0  0  0
    6.6354  -10.2319   -0.7256 H   0  0  0  0  0  0  0  0  0  0  0  0
    5.0626  -10.7642   -1.3620 H   0  0  0  0  0  0  0  0  0  0  0  0
    7.1220  -12.1655   -2.3767 H   0  0  0  0  0  0  0  0  0  0  0  0
    7.0740  -14.3654   -0.6687 H   0  0  0  0  0  0  0  0  0  0  0  0
  1  2  2  0  0  0  0
  2  3  1  0  0  0  0
  2  4  1  0  0  0  0
  3  5  1  0  0  0  0
  4  6  1  1  0  0  0
  4  7  1  0  0  0  0
  4 78  1  0  0  0  0
  5  8  1  1  0  0  0
  5  9  1  0  0  0  0
  5 79  1  0  0  0  0
  6 10  1  0  0  0  0
  6 11  1  1  0  0  0
  6 80  1  0  0  0  0
  7 81  1  0  0  0  0
  7 82  1  0  0  0  0
  7 83  1  0  0  0  0
  8 12  1  0  0  0  0
  8 13  1  1  0  0  0
  8 14  1  0  0  0  0
  9 15  1  0  0  0  0
  9 84  1  0  0  0  0
  9 85  1  0  0  0  0
 11 17  1  1  0  0  0
 11 18  1  0  0  0  0
 11 86  1  0  0  0  0
 12 87  1  0  0  0  0
 13 20  1  1  0  0  0
 13 19  1  0  0  0  0
 13 88  1  0  0  0  0
 14 89  1  0  0  0  0
 14 90  1  0  0  0  0
 14 91  1  0  0  0  0
 15 92  1  0  0  0  0
 15 93  1  0  0  0  0
 15 94  1  0  0  0  0
 16 21  1  0  0  0  0
 16 22  1  0  0  0  0
 16 10  1  0  0  0  0
 16 95  1  1  0  0  0
 17 23  1  0  0  0  0
 17 24  1  1  0  0  0
 17 96  1  0  0  0  0
 18 97  1  0  0  0  0
 18 98  1  0  0  0  0
 18 99  1  0  0  0  0
 19100  1  0  0  0  0
 20 25  1  0  0  0  0
 20 26  1  0  0  0  0
 20101  1  6  0  0  0
 21 27  1  0  0  0  0
 22 28  1  0  0  0  0
 22102  1  0  0  0  0
 22103  1  0  0  0  0
 24 30  1  1  0  0  0
 24 31  1  0  0  0  0
 24 32  1  0  0  0  0
 25 33  2  0  0  0  0
 25 34  1  0  0  0  0
 26104  1  0  0  0  0
 26105  1  0  0  0  0
 26106  1  0  0  0  0
 27 35  1  6  0  0  0
 27 36  1  0  0  0  0
 27107  1  0  0  0  0
 28 35  1  1  0  0  0
 28 38  1  0  0  0  0
 28 37  1  0  0  0  0
 29 23  1  0  0  0  0
 29 39  1  0  0  0  0
 29 40  1  1  0  0  0
 29108  1  0  0  0  0
 30 41  1  0  0  0  0
 31 34  1  0  0  0  0
 31109  1  0  0  0  0
 31110  1  0  0  0  0
 32111  1  0  0  0  0
 32112  1  0  0  0  0
 32113  1  0  0  0  0
 34 42  1  0  0  0  0
 34114  1  1  0  0  0
 35 44  1  0  0  0  0
 35 43  1  6  0  0  0
 36115  1  0  0  0  0
 36116  1  0  0  0  0
 36117  1  0  0  0  0
 37 45  1  0  0  0  0
 38118  1  0  0  0  0
 38119  1  0  0  0  0
 38120  1  0  0  0  0
 39 46  1  0  0  0  0
 40 48  1  6  0  0  0
 40 47  1  0  0  0  0
 40121  1  0  0  0  0
 41122  1  0  0  0  0
 41123  1  0  0  0  0
 41124  1  0  0  0  0
 42125  1  0  0  0  0
 42126  1  0  0  0  0
 42127  1  0  0  0  0
 43128  1  0  0  0  0
 44 49  1  0  0  0  0
 44129  1  0  0  0  0
 44130  1  0  0  0  0
 45131  1  0  0  0  0
 45132  1  0  0  0  0
 45133  1  0  0  0  0
 46 50  1  0  0  0  0
 46 51  1  0  0  0  0
 46134  1  1  0  0  0
 47135  1  0  0  0  0
 48 50  1  0  0  0  0
 48 52  1  0  0  0  0
 48136  1  1  0  0  0
 49 53  1  0  0  0  0
 49 54  1  0  0  0  0
 50137  1  0  0  0  0
 50138  1  0  0  0  0
 51139  1  0  0  0  0
 51140  1  0  0  0  0
 51141  1  0  0  0  0
 52 55  1  0  0  0  0
 52 56  1  0  0  0  0
 53142  1  0  0  0  0
 53143  1  0  0  0  0
 53144  1  0  0  0  0
 54145  1  0  0  0  0
 54146  1  0  0  0  0
 54147  1  0  0  0  0
 55 57  1  0  0  0  0
 55148  1  0  0  0  0
 55149  1  0  0  0  0
 56150  1  0  0  0  0
 56151  1  0  0  0  0
 56152  1  0  0  0  0
 57 58  2  0  0  0  0
 57 59  1  0  0  0  0
 58 60  1  0  0  0  0
 58153  1  0  0  0  0
 59 61  2  0  0  0  0
 59154  1  0  0  0  0
 60 62  2  0  0  0  0
 60155  1  0  0  0  0
 61 62  1  0  0  0  0
 61156  1  0  0  0  0
 62 63  1  0  0  0  0
 63 64  1  0  0  0  0
 63 65  2  0  0  0  0
 64 66  2  0  0  0  0
 65 67  1  0  0  0  0
 65157  1  0  0  0  0
 66 67  1  0  0  0  0
 67 68  1  0  0  0  0
 68 69  1  0  0  0  0
 68158  1  0  0  0  0
 68159  1  0  0  0  0
 69 70  1  0  0  0  0
 69160  1  0  0  0  0
 69161  1  0  0  0  0
 70 71  1  0  0  0  0
 70162  1  0  0  0  0
 70163  1  0  0  0  0
 71 72  1  0  0  0  0
 71164  1  0  0  0  0
 71165  1  0  0  0  0
 72 73  1  0  0  0  0
 72166  1  0  0  0  0
 72167  1  0  0  0  0
 73 74  1  0  0  0  0
 73168  1  0  0  0  0
 73169  1  0  0  0  0
 74 75  2  0  0  0  0
 74 76  1  0  0  0  0
 76 77  1  0  0  0  0
 76170  1  0  0  0  0
 77171  1  0  0  0  0
M  END
>  <Molecule Name>
2337358

>  <MolRegNo>
2337358

>  <m>
=

>  <Value>
3580

>  <Unit>
nM

>  <Type>
IC50

>  <pValue>
5.45

>  <Ligand Efficiency>
0

>  <Binding Efficiency>
0

>  <Surface Efficiency>
0

>  <Assay Index>
977533

>  <Assay Category>


>  <Assay Organism>
Homo sapiens

>  <Target ID>
80682

>  <Target Name>
A549

>  <Target Organism>
Homo sapiens

>  <Target Description>
Target is a specific cell-line

>  <Sequence Accession>


>  <Reference>
Bioorg. Med. Chem. 23 (24), 7543-7564 (2015)

>  <Pubmed ID>
26585275

>  <DOI>
10.1016/j.bmc.2015.10.045

$$$$
2337358
 OpenBabel03252423463D

171175  0  0  0  0  0  0  0  0999 V2000
    0.1594    4.9993    2.0291 O   0  0  0  0  0  0  0  0  0  0  0  0
   -0.3142    3.8685    1.9726 C   0  0  0  0  0  0  0  0  0  0  0  0
   -1.6436    3.6142    1.8039 O   0  0  0  0  0  0  0  0  0  0  0  0
    0.4874    2.6002    2.0763 C   0  0  2  0  0  0  0  0  0  0  0  0
   -2.5711    4.7002    1.4716 C   0  0  2  0  0  0  0  0  0  0  0  0
    1.0949    2.5245    3.5714 C   0  0  2  0  0  0  0  0  0  0  0  0
    1.3245    2.4861    0.8013 C   0  0  0  0  0  0  0  0  0  0  0  0
   -3.9715    4.4260    2.1564 C   0  0  2  0  0  0  0  0  0  0  0  0
   -2.6691    4.7983   -0.0675 C   0  0  0  0  0  0  0  0  0  0  0  0
    2.4852    2.3184    3.5777 O   0  0  0  0  0  0  0  0  0  0  0  0
    0.4529    1.3741    4.4967 C   0  0  1  0  0  0  0  0  0  0  0  0
   -4.9136    5.4153    1.6837 O   0  0  0  0  0  0  0  0  0  0  0  0
   -3.9504    4.5461    3.7653 C   0  0  2  0  0  0  0  0  0  0  0  0
   -4.5353    3.0912    1.6262 C   0  0  0  0  0  0  0  0  0  0  0  0
   -1.3509    5.0870   -0.7692 C   0  0  0  0  0  0  0  0  0  0  0  0
    3.3595    3.3597    3.1870 C   0  0  1  0  0  0  0  0  0  0  0  0
    0.5626    1.4574    6.2078 C   0  0  2  0  0  0  0  0  0  0  0  0
   -0.9855    1.2954    3.9873 C   0  0  0  0  0  0  0  0  0  0  0  0
   -2.6262    4.7445    4.2544 O   0  0  0  0  0  0  0  0  0  0  0  0
   -4.6450    3.3940    4.5413 C   0  0  1  0  0  0  0  0  0  0  0  0
    3.3602    3.5752    1.8023 O   0  0  0  0  0  0  0  0  0  0  0  0
    3.2019    4.6178    3.9982 C   0  0  0  0  0  0  0  0  0  0  0  0
    1.9398    1.1115    6.7257 O   0  0  0  0  0  0  0  0  0  0  0  0
   -0.8087    0.6831    6.8655 C   0  0  1  0  0  0  0  0  0  0  0  0
   -4.0747    3.0501    5.9415 C   0  0  0  0  0  0  0  0  0  0  0  0
   -6.1605    3.5910    4.6624 C   0  0  0  0  0  0  0  0  0  0  0  0
    4.3166    4.5080    1.2979 C   0  0  1  0  0  0  0  0  0  0  0  0
    4.2817    5.6242    3.6469 C   0  0  1  0  0  0  0  0  0  0  0  0
    2.4061    1.3264    8.1284 C   0  0  2  0  0  0  0  0  0  0  0  0
   -0.5283    0.4684    8.2742 O   0  0  0  0  0  0  0  0  0  0  0  0
   -2.0066    1.7794    6.7264 C   0  0  0  0  0  0  0  0  0  0  0  0
   -1.1007   -0.7280    6.2678 C   0  0  0  0  0  0  0  0  0  0  0  0
   -4.0951    3.8929    6.8443 O   0  0  0  0  0  0  0  0  0  0  0  0
   -3.5100    1.6045    6.2432 C   0  0  2  0  0  0  0  0  0  0  0  0
    4.1762    5.8259    2.1007 C   0  0  2  0  0  0  0  0  0  0  0  0
    5.6671    3.8197    1.1138 C   0  0  0  0  0  0  0  0  0  0  0  0
    4.1525    6.8384    4.4236 O   0  0  0  0  0  0  0  0  0  0  0  0
    5.6537    5.1215    4.1560 C   0  0  0  0  0  0  0  0  0  0  0  0
    2.1312    2.6052    8.7210 O   0  0  0  0  0  0  0  0  0  0  0  0
    3.9593    0.9909    8.5830 C   0  0  2  0  0  0  0  0  0  0  0  0
   -1.4793   -0.2516    9.0575 C   0  0  0  0  0  0  0  0  0  0  0  0
   -3.9132    0.6335    5.1192 C   0  0  0  0  0  0  0  0  0  0  0  0
    2.8056    6.2716    1.8579 O   0  0  0  0  0  0  0  0  0  0  0  0
    5.1394    6.9280    1.6450 C   0  0  0  0  0  0  0  0  0  0  0  0
    2.9233    7.5418    4.4248 C   0  0  0  0  0  0  0  0  0  0  0  0
    3.0593    3.6666    8.4752 C   0  0  1  0  0  0  0  0  0  0  0  0
    4.0783    0.9969   10.0447 O   0  0  0  0  0  0  0  0  0  0  0  0
    5.0636    1.9676    8.1136 C   0  0  2  0  0  0  0  0  0  0  0  0
    5.0398    7.3736    0.2360 N   0  0  0  0  0  0  0  0  0  0  0  0
    4.5790    3.3755    8.5372 C   0  0  0  0  0  0  0  0  0  0  0  0
    2.6251    4.3478    7.2126 C   0  0  0  0  0  0  0  0  0  0  0  0
    5.6457    1.8765    6.7630 N   0  0  0  0  0  0  0  0  0  0  0  0
    3.7061    7.9192   -0.0618 C   0  0  0  0  0  0  0  0  0  0  0  0
    6.0432    8.4239    0.0508 C   0  0  0  0  0  0  0  0  0  0  0  0
    4.7611    1.7078    5.6322 C   0  0  0  0  0  0  0  0  0  0  0  0
    6.8847    1.1309    6.5615 C   0  0  0  0  0  0  0  0  0  0  0  0
    4.3823    0.3419    5.0849 C   0  0  0  0  0  0  0  0  0  0  0  0
    3.9249   -0.7161    5.8691 C   0  0  0  0  0  0  0  0  0  0  0  0
    4.2522    0.1791    3.7006 C   0  0  0  0  0  0  0  0  0  0  0  0
    3.2648   -1.8093    5.3439 C   0  0  0  0  0  0  0  0  0  0  0  0
    3.5615   -0.8993    3.1464 C   0  0  0  0  0  0  0  0  0  0  0  0
    3.0897   -1.9104    3.9740 C   0  0  0  0  0  0  0  0  0  0  0  0
    2.5733   -3.1307    3.4416 C   0  0  0  0  0  0  0  0  0  0  0  0
    1.7664   -3.2803    2.3591 N   0  0  0  0  0  0  0  0  0  0  0  0
    2.9990   -4.3525    3.9000 C   0  0  0  0  0  0  0  0  0  0  0  0
    1.6838   -4.5816    2.1061 N   0  0  0  0  0  0  0  0  0  0  0  0
    2.4912   -5.2078    2.9853 N   0  0  0  0  0  0  0  0  0  0  0  0
    2.9195   -6.5712    2.7842 C   0  0  0  0  0  0  0  0  0  0  0  0
    3.5714   -6.7460    1.4181 C   0  0  0  0  0  0  0  0  0  0  0  0
    4.1574   -8.1387    1.2662 C   0  0  0  0  0  0  0  0  0  0  0  0
    4.7686   -8.3082   -0.1148 C   0  0  0  0  0  0  0  0  0  0  0  0
    5.3514   -9.7131   -0.2661 C   0  0  0  0  0  0  0  0  0  0  0  0
    5.9510   -9.9327   -1.6516 C   0  0  0  0  0  0  0  0  0  0  0  0
    6.4813  -11.3378   -1.7930 C   0  0  0  0  0  0  0  0  0  0  0  0
    6.5318  -12.1595   -0.8827 O   0  0  0  0  0  0  0  0  0  0  0  0
    6.9225  -11.6237   -3.0622 N   0  0  0  0  0  0  0  0  0  0  0  0
    7.5466  -12.8768   -3.2077 O   0  0  0  0  0  0  0  0  0  0  0  0
   -0.1928    1.7742    1.9040 H   0  0  0  0  0  0  0  0  0  0  0  0
   -2.1743    5.6496    1.8563 H   0  0  0  0  0  0  0  0  0  0  0  0
    0.8480    3.4505    4.1033 H   0  0  0  0  0  0  0  0  0  0  0  0
    1.6862    3.4554    0.4426 H   0  0  0  0  0  0  0  0  0  0  0  0
    0.6983    2.1389   -0.0305 H   0  0  0  0  0  0  0  0  0  0  0  0
    2.1341    1.7577    0.8988 H   0  0  0  0  0  0  0  0  0  0  0  0
   -3.3854    5.5843   -0.3368 H   0  0  0  0  0  0  0  0  0  0  0  0
   -3.0372    3.8573   -0.4870 H   0  0  0  0  0  0  0  0  0  0  0  0
    0.9548    0.4312    4.2463 H   0  0  0  0  0  0  0  0  0  0  0  0
   -4.6300    6.2898    2.0044 H   0  0  0  0  0  0  0  0  0  0  0  0
   -4.4722    5.4757    4.0312 H   0  0  0  0  0  0  0  0  0  0  0  0
   -4.7008    3.1114    0.5531 H   0  0  0  0  0  0  0  0  0  0  0  0
   -5.5242    2.8572    2.0351 H   0  0  0  0  0  0  0  0  0  0  0  0
   -3.8667    2.2483    1.8528 H   0  0  0  0  0  0  0  0  0  0  0  0
   -0.8703    5.9797   -0.3618 H   0  0  0  0  0  0  0  0  0  0  0  0
   -1.5218    5.2469   -1.8385 H   0  0  0  0  0  0  0  0  0  0  0  0
   -0.6648    4.2398   -0.6815 H   0  0  0  0  0  0  0  0  0  0  0  0
    4.3382    2.9616    3.3888 H   0  0  0  0  0  0  0  0  0  0  0  0
    0.4599    2.5152    6.4674 H   0  0  0  0  0  0  0  0  0  0  0  0
   -1.4248    2.2812    3.8560 H   0  0  0  0  0  0  0  0  0  0  0  0
   -1.6467    0.7899    4.6384 H   0  0  0  0  0  0  0  0  0  0  0  0
   -1.0856    0.7042    3.0733 H   0  0  0  0  0  0  0  0  0  0  0  0
   -2.0232    4.1525    3.7854 H   0  0  0  0  0  0  0  0  0  0  0  0
   -4.5154    2.5191    3.9289 H   0  0  0  0  0  0  0  0  0  0  0  0
    3.3044    4.3722    5.0305 H   0  0  0  0  0  0  0  0  0  0  0  0
    2.1988    5.0366    3.8834 H   0  0  0  0  0  0  0  0  0  0  0  0
   -6.4124    4.4299    5.3188 H   0  0  0  0  0  0  0  0  0  0  0  0
   -6.6232    2.6920    5.0858 H   0  0  0  0  0  0  0  0  0  0  0  0
   -6.6292    3.7748    3.6909 H   0  0  0  0  0  0  0  0  0  0  0  0
    3.9616    4.7070    0.2793 H   0  0  0  0  0  0  0  0  0  0  0  0
    1.8256    0.6126    8.7176 H   0  0  0  0  0  0  0  0  0  0  0  0
   -1.6187    2.5856    6.0909 H   0  0  0  0  0  0  0  0  0  0  0  0
   -2.0714    2.2734    7.7071 H   0  0  0  0  0  0  0  0  0  0  0  0
   -0.4270   -1.4886    6.6708 H   0  0  0  0  0  0  0  0  0  0  0  0
   -1.0479   -0.8469    5.1857 H   0  0  0  0  0  0  0  0  0  0  0  0
   -2.1144   -1.0491    6.5358 H   0  0  0  0  0  0  0  0  0  0  0  0
   -4.0765    1.2577    7.1176 H   0  0  0  0  0  0  0  0  0  0  0  0
    6.0756    3.3742    2.0197 H   0  0  0  0  0  0  0  0  0  0  0  0
    6.4117    4.4875    0.6764 H   0  0  0  0  0  0  0  0  0  0  0  0
    5.5427    2.9656    0.4343 H   0  0  0  0  0  0  0  0  0  0  0  0
    5.9424    4.1316    3.8186 H   0  0  0  0  0  0  0  0  0  0  0  0
    5.6514    5.0722    5.2537 H   0  0  0  0  0  0  0  0  0  0  0  0
    6.4596    5.8097    3.8893 H   0  0  0  0  0  0  0  0  0  0  0  0
    4.2969   -0.0136    8.3927 H   0  0  0  0  0  0  0  0  0  0  0  0
   -0.9303   -0.7673    9.8531 H   0  0  0  0  0  0  0  0  0  0  0  0
   -2.0345   -1.0269    8.5237 H   0  0  0  0  0  0  0  0  0  0  0  0
   -2.1866    0.4387    9.5203 H   0  0  0  0  0  0  0  0  0  0  0  0
   -3.5148    0.9022    4.1358 H   0  0  0  0  0  0  0  0  0  0  0  0
   -5.0041    0.6425    4.9902 H   0  0  0  0  0  0  0  0  0  0  0  0
   -3.6394   -0.4016    5.3054 H   0  0  0  0  0  0  0  0  0  0  0  0
    2.2296    5.4908    1.7120 H   0  0  0  0  0  0  0  0  0  0  0  0
    5.0047    7.7998    2.2968 H   0  0  0  0  0  0  0  0  0  0  0  0
    6.1611    6.5653    1.8101 H   0  0  0  0  0  0  0  0  0  0  0  0
    3.0561    8.4208    5.0622 H   0  0  0  0  0  0  0  0  0  0  0  0
    2.1171    6.9455    4.8577 H   0  0  0  0  0  0  0  0  0  0  0  0
    2.6585    7.9102    3.4344 H   0  0  0  0  0  0  0  0  0  0  0  0
    2.8755    4.4051    9.2669 H   0  0  0  0  0  0  0  0  0  0  0  0
    3.1863    1.1008   10.4110 H   0  0  0  0  0  0  0  0  0  0  0  0
    5.9392    1.8192    8.7699 H   0  0  0  0  0  0  0  0  0  0  0  0
    4.8462    3.4704    9.6047 H   0  0  0  0  0  0  0  0  0  0  0  0
    5.1704    4.1738    8.0650 H   0  0  0  0  0  0  0  0  0  0  0  0
    2.4510    3.5886    6.4565 H   0  0  0  0  0  0  0  0  0  0  0  0
    3.3554    5.0950    6.8926 H   0  0  0  0  0  0  0  0  0  0  0  0
    1.6565    4.8388    7.3348 H   0  0  0  0  0  0  0  0  0  0  0  0
    2.9924    7.1126   -0.2625 H   0  0  0  0  0  0  0  0  0  0  0  0
    3.7142    8.5188   -0.9770 H   0  0  0  0  0  0  0  0  0  0  0  0
    3.3206    8.5516    0.7482 H   0  0  0  0  0  0  0  0  0  0  0  0
    7.0452    8.0159    0.2235 H   0  0  0  0  0  0  0  0  0  0  0  0
    5.8867    9.2613    0.7412 H   0  0  0  0  0  0  0  0  0  0  0  0
    6.0218    8.8028   -0.9741 H   0  0  0  0  0  0  0  0  0  0  0  0
    5.2994    2.2216    4.8370 H   0  0  0  0  0  0  0  0  0  0  0  0
    3.8592    2.2859    5.7960 H   0  0  0  0  0  0  0  0  0  0  0  0
    7.3562    1.4543    5.6191 H   0  0  0  0  0  0  0  0  0  0  0  0
    6.7183    0.0525    6.4814 H   0  0  0  0  0  0  0  0  0  0  0  0
    7.6337    1.3117    7.3369 H   0  0  0  0  0  0  0  0  0  0  0  0
    3.9643   -0.7281    6.9227 H   0  0  0  0  0  0  0  0  0  0  0  0
    4.6055    0.9428    3.0169 H   0  0  0  0  0  0  0  0  0  0  0  0
    2.8913   -2.5653    6.0267 H   0  0  0  0  0  0  0  0  0  0  0  0
    3.4031   -0.9401    2.0761 H   0  0  0  0  0  0  0  0  0  0  0  0
    3.6831   -4.6428    4.6818 H   0  0  0  0  0  0  0  0  0  0  0  0
    2.0452   -7.2132    2.9174 H   0  0  0  0  0  0  0  0  0  0  0  0
    3.6413   -6.8067    3.5772 H   0  0  0  0  0  0  0  0  0  0  0  0
    4.3618   -5.9948    1.2818 H   0  0  0  0  0  0  0  0  0  0  0  0
    2.8292   -6.5665    0.6306 H   0  0  0  0  0  0  0  0  0  0  0  0
    3.3729   -8.8878    1.4233 H   0  0  0  0  0  0  0  0  0  0  0  0
    4.9234   -8.3039    2.0341 H   0  0  0  0  0  0  0  0  0  0  0  0
    5.5583   -7.5646   -0.2781 H   0  0  0  0  0  0  0  0  0  0  0  0
    4.0074   -8.1475   -0.8878 H   0  0  0  0  0  0  0  0  0  0  0  0
    4.5655  -10.4565   -0.0860 H   0  0  0  0  0  0  0  0  0  0  0  0
    6.1214   -9.8742    0.5006 H   0  0  0  0  0  0  0  0  0  0  0  0
    6.7754   -9.2260   -1.8165 H   0  0  0  0  0  0  0  0  0  0  0  0
    5.1916   -9.7582   -2.4203 H   0  0  0  0  0  0  0  0  0  0  0  0
    7.1999  -10.9068   -3.7188 H   0  0  0  0  0  0  0  0  0  0  0  0
    7.4562  -13.2722   -2.3044 H   0  0  0  0  0  0  0  0  0  0  0  0
  1  2  2  0  0  0  0
  2  3  1  0  0  0  0
  2  4  1  0  0  0  0
  3  5  1  0  0  0  0
  4  6  1  1  0  0  0
  4  7  1  0  0  0  0
  4 78  1  0  0  0  0
  5  8  1  1  0  0  0
  5  9  1  0  0  0  0
  5 79  1  0  0  0  0
  6 10  1  0  0  0  0
  6 11  1  1  0  0  0
  6 80  1  0  0  0  0
  7 81  1  0  0  0  0
  7 82  1  0  0  0  0
  7 83  1  0  0  0  0
  8 12  1  0  0  0  0
  8 13  1  1  0  0  0
  8 14  1  0  0  0  0
  9 15  1  0  0  0  0
  9 84  1  0  0  0  0
  9 85  1  0  0  0  0
 11 17  1  1  0  0  0
 11 18  1  0  0  0  0
 11 86  1  0  0  0  0
 12 87  1  0  0  0  0
 13 20  1  1  0  0  0
 13 19  1  0  0  0  0
 13 88  1  0  0  0  0
 14 89  1  0  0  0  0
 14 90  1  0  0  0  0
 14 91  1  0  0  0  0
 15 92  1  0  0  0  0
 15 93  1  0  0  0  0
 15 94  1  0  0  0  0
 16 21  1  0  0  0  0
 16 22  1  0  0  0  0
 16 10  1  0  0  0  0
 16 95  1  1  0  0  0
 17 23  1  0  0  0  0
 17 24  1  1  0  0  0
 17 96  1  0  0  0  0
 18 97  1  0  0  0  0
 18 98  1  0  0  0  0
 18 99  1  0  0  0  0
 19100  1  0  0  0  0
 20 25  1  0  0  0  0
 20 26  1  0  0  0  0
 20101  1  6  0  0  0
 21 27  1  0  0  0  0
 22 28  1  0  0  0  0
 22102  1  0  0  0  0
 22103  1  0  0  0  0
 24 30  1  1  0  0  0
 24 31  1  0  0  0  0
 24 32  1  0  0  0  0
 25 33  2  0  0  0  0
 25 34  1  0  0  0  0
 26104  1  0  0  0  0
 26105  1  0  0  0  0
 26106  1  0  0  0  0
 27 35  1  1  0  0  0
 27 36  1  0  0  0  0
 27107  1  0  0  0  0
 28 35  1  6  0  0  0
 28 38  1  0  0  0  0
 28 37  1  0  0  0  0
 29 23  1  0  0  0  0
 29 39  1  0  0  0  0
 29 40  1  1  0  0  0
 29108  1  0  0  0  0
 30 41  1  0  0  0  0
 31 34  1  0  0  0  0
 31109  1  0  0  0  0
 31110  1  0  0  0  0
 32111  1  0  0  0  0
 32112  1  0  0  0  0
 32113  1  0  0  0  0
 34 42  1  0  0  0  0
 34114  1  1  0  0  0
 35 44  1  0  0  0  0
 35 43  1  6  0  0  0
 36115  1  0  0  0  0
 36116  1  0  0  0  0
 36117  1  0  0  0  0
 37 45  1  0  0  0  0
 38118  1  0  0  0  0
 38119  1  0  0  0  0
 38120  1  0  0  0  0
 39 46  1  0  0  0  0
 40 48  1  6  0  0  0
 40 47  1  0  0  0  0
 40121  1  0  0  0  0
 41122  1  0  0  0  0
 41123  1  0  0  0  0
 41124  1  0  0  0  0
 42125  1  0  0  0  0
 42126  1  0  0  0  0
 42127  1  0  0  0  0
 43128  1  0  0  0  0
 44 49  1  0  0  0  0
 44129  1  0  0  0  0
 44130  1  0  0  0  0
 45131  1  0  0  0  0
 45132  1  0  0  0  0
 45133  1  0  0  0  0
 46 50  1  0  0  0  0
 46 51  1  0  0  0  0
 46134  1  1  0  0  0
 47135  1  0  0  0  0
 48 50  1  0  0  0  0
 48 52  1  0  0  0  0
 48136  1  1  0  0  0
 49 53  1  0  0  0  0
 49 54  1  0  0  0  0
 50137  1  0  0  0  0
 50138  1  0  0  0  0
 51139  1  0  0  0  0
 51140  1  0  0  0  0
 51141  1  0  0  0  0
 52 55  1  0  0  0  0
 52 56  1  0  0  0  0
 53142  1  0  0  0  0
 53143  1  0  0  0  0
 53144  1  0  0  0  0
 54145  1  0  0  0  0
 54146  1  0  0  0  0
 54147  1  0  0  0  0
 55 57  1  0  0  0  0
 55148  1  0  0  0  0
 55149  1  0  0  0  0
 56150  1  0  0  0  0
 56151  1  0  0  0  0
 56152  1  0  0  0  0
 57 58  2  0  0  0  0
 57 59  1  0  0  0  0
 58 60  1  0  0  0  0
 58153  1  0  0  0  0
 59 61  2  0  0  0  0
 59154  1  0  0  0  0
 60 62  2  0  0  0  0
 60155  1  0  0  0  0
 61 62  1  0  0  0  0
 61156  1  0  0  0  0
 62 63  1  0  0  0  0
 63 64  1  0  0  0  0
 63 65  2  0  0  0  0
 64 66  2  0  0  0  0
 65 67  1  0  0  0  0
 65157  1  0  0  0  0
 66 67  1  0  0  0  0
 67 68  1  0  0  0  0
 68 69  1  0  0  0  0
 68158  1  0  0  0  0
 68159  1  0  0  0  0
 69 70  1  0  0  0  0
 69160  1  0  0  0  0
 69161  1  0  0  0  0
 70 71  1  0  0  0  0
 70162  1  0  0  0  0
 70163  1  0  0  0  0
 71 72  1  0  0  0  0
 71164  1  0  0  0  0
 71165  1  0  0  0  0
 72 73  1  0  0  0  0
 72166  1  0  0  0  0
 72167  1  0  0  0  0
 73 74  1  0  0  0  0
 73168  1  0  0  0  0
 73169  1  0  0  0  0
 74 75  2  0  0  0  0
 74 76  1  0  0  0  0
 76 77  1  0  0  0  0
 76170  1  0  0  0  0
 77171  1  0  0  0  0
M  END
>  <Molecule Name>
2337358

>  <MolRegNo>
2337358

>  <m>
=

>  <Value>
1430

>  <Unit>
nM

>  <Type>
IC50

>  <pValue>
5.84

>  <Ligand Efficiency>
0

>  <Binding Efficiency>
0

>  <Surface Efficiency>
0

>  <Assay Index>
977534

>  <Assay Category>


>  <Assay Organism>
Homo sapiens

>  <Target ID>
80224

>  <Target Name>
MCF7

>  <Target Organism>
Homo sapiens

>  <Target Description>
Target is a specific cell-line

>  <Sequence Accession>


>  <Reference>
Bioorg. Med. Chem. 23 (24), 7543-7564 (2015)

>  <Pubmed ID>
26585275

>  <DOI>
10.1016/j.bmc.2015.10.045

$$$$
2337358
 OpenBabel03252423463D

171175  0  0  0  0  0  0  0  0999 V2000
    0.2535    4.9156    2.0665 O   0  0  0  0  0  0  0  0  0  0  0  0
   -0.2103    3.7872    1.9962 C   0  0  0  0  0  0  0  0  0  0  0  0
   -1.5349    3.5045    1.8065 O   0  0  0  0  0  0  0  0  0  0  0  0
    0.6315    2.5257    2.1081 C   0  0  2  0  0  0  0  0  0  0  0  0
   -2.4404    4.6057    1.4906 C   0  0  2  0  0  0  0  0  0  0  0  0
    1.2374    2.4620    3.6101 C   0  0  2  0  0  0  0  0  0  0  0  0
    1.4728    2.4474    0.8310 C   0  0  0  0  0  0  0  0  0  0  0  0
   -3.8479    4.3389    2.1716 C   0  0  2  0  0  0  0  0  0  0  0  0
   -2.5486    4.7256   -0.0496 C   0  0  0  0  0  0  0  0  0  0  0  0
    2.6255    2.2557    3.6478 O   0  0  0  0  0  0  0  0  0  0  0  0
    0.5959    1.3230    4.5341 C   0  0  1  0  0  0  0  0  0  0  0  0
   -4.7887    5.3275    1.6960 O   0  0  0  0  0  0  0  0  0  0  0  0
   -3.8277    4.4726    3.7776 C   0  0  2  0  0  0  0  0  0  0  0  0
   -4.4043    2.9959    1.6456 C   0  0  0  0  0  0  0  0  0  0  0  0
   -1.2301    5.0364   -0.7426 C   0  0  0  0  0  0  0  0  0  0  0  0
    3.4962    3.2939    3.2519 C   0  0  1  0  0  0  0  0  0  0  0  0
    0.7122    1.4131    6.2436 C   0  0  2  0  0  0  0  0  0  0  0  0
   -0.8427    1.2717    4.0272 C   0  0  0  0  0  0  0  0  0  0  0  0
   -2.5071    4.6790    4.2752 O   0  0  0  0  0  0  0  0  0  0  0  0
   -4.5232    3.3270    4.5557 C   0  0  1  0  0  0  0  0  0  0  0  0
    3.5192    3.4513    1.8607 O   0  0  0  0  0  0  0  0  0  0  0  0
    3.2891    4.5904    3.9872 C   0  0  0  0  0  0  0  0  0  0  0  0
    2.0918    1.0625    6.7660 O   0  0  0  0  0  0  0  0  0  0  0  0
   -0.6659    0.6443    6.8946 C   0  0  1  0  0  0  0  0  0  0  0  0
   -3.9487    2.9899    5.9546 C   0  0  0  0  0  0  0  0  0  0  0  0
   -6.0410    3.5088    4.6690 C   0  0  0  0  0  0  0  0  0  0  0  0
    4.4362    4.4005    1.3213 C   0  0  1  0  0  0  0  0  0  0  0  0
    4.3943    5.5698    3.6394 C   0  0  1  0  0  0  0  0  0  0  0  0
    2.5599    1.2847    8.1705 C   0  0  2  0  0  0  0  0  0  0  0  0
   -0.3903    0.4282    8.3027 O   0  0  0  0  0  0  0  0  0  0  0  0
   -1.8664    1.7410    6.7494 C   0  0  0  0  0  0  0  0  0  0  0  0
   -0.9637   -0.7645    6.2913 C   0  0  0  0  0  0  0  0  0  0  0  0
   -3.9785    3.8317    6.8579 O   0  0  0  0  0  0  0  0  0  0  0  0
   -3.3666    1.5521    6.2510 C   0  0  2  0  0  0  0  0  0  0  0  0
    4.2880    5.7392    2.0893 C   0  0  2  0  0  0  0  0  0  0  0  0
    5.7858    3.7214    1.1235 C   0  0  0  0  0  0  0  0  0  0  0  0
    4.2863    6.7982    4.3954 O   0  0  0  0  0  0  0  0  0  0  0  0
    5.7631    5.0600    4.1552 C   0  0  0  0  0  0  0  0  0  0  0  0
    2.3144    2.5794    8.7502 O   0  0  0  0  0  0  0  0  0  0  0  0
    4.1028    0.9274    8.6443 C   0  0  2  0  0  0  0  0  0  0  0  0
   -1.3505   -0.2815    9.0833 C   0  0  0  0  0  0  0  0  0  0  0  0
   -3.7540    0.5858    5.1146 C   0  0  0  0  0  0  0  0  0  0  0  0
    2.9198    6.1793    1.8315 O   0  0  0  0  0  0  0  0  0  0  0  0
    5.2573    6.8271    1.6095 C   0  0  0  0  0  0  0  0  0  0  0  0
    3.0569    7.4988    4.4232 C   0  0  0  0  0  0  0  0  0  0  0  0
    3.2690    3.6168    8.4977 C   0  0  1  0  0  0  0  0  0  0  0  0
    4.1964    0.9237   10.1138 O   0  0  0  0  0  0  0  0  0  0  0  0
    5.2338    1.8784    8.1750 C   0  0  2  0  0  0  0  0  0  0  0  0
    5.1492    7.2441    0.1925 N   0  0  0  0  0  0  0  0  0  0  0  0
    4.7796    3.2972    8.5908 C   0  0  0  0  0  0  0  0  0  0  0  0
    2.8910    4.2601    7.2042 C   0  0  0  0  0  0  0  0  0  0  0  0
    5.8310    1.7656    6.8278 N   0  0  0  0  0  0  0  0  0  0  0  0
    3.8149    7.7875   -0.1066 C   0  0  0  0  0  0  0  0  0  0  0  0
    6.1538    8.2868   -0.0234 C   0  0  0  0  0  0  0  0  0  0  0  0
    4.9591    1.6038    5.6807 C   0  0  0  0  0  0  0  0  0  0  0  0
    7.0450    0.9685    6.6563 C   0  0  0  0  0  0  0  0  0  0  0  0
    4.5396    0.2364    5.1658 C   0  0  0  0  0  0  0  0  0  0  0  0
    4.0902   -0.7971    5.9768 C   0  0  0  0  0  0  0  0  0  0  0  0
    4.3718    0.0461    3.7886 C   0  0  0  0  0  0  0  0  0  0  0  0
    3.4579   -1.9243    5.4986 C   0  0  0  0  0  0  0  0  0  0  0  0
    3.7149   -1.0764    3.2767 C   0  0  0  0  0  0  0  0  0  0  0  0
    3.2848   -2.0781    4.1397 C   0  0  0  0  0  0  0  0  0  0  0  0
    2.7955   -3.3318    3.6587 C   0  0  0  0  0  0  0  0  0  0  0  0
    2.0071   -3.5448    2.5692 N   0  0  0  0  0  0  0  0  0  0  0  0
    3.1871   -4.5324    4.2046 C   0  0  0  0  0  0  0  0  0  0  0  0
    1.8954   -4.8602    2.4119 N   0  0  0  0  0  0  0  0  0  0  0  0
    2.6741   -5.4388    3.3468 N   0  0  0  0  0  0  0  0  0  0  0  0
    3.0788   -6.8214    3.2357 C   0  0  0  0  0  0  0  0  0  0  0  0
    3.7520   -7.0817    1.8923 C   0  0  0  0  0  0  0  0  0  0  0  0
    4.3322   -8.4851    1.8241 C   0  0  0  0  0  0  0  0  0  0  0  0
    4.9589   -8.7530    0.4540 C   0  0  0  0  0  0  0  0  0  0  0  0
    5.5160  -10.1784    0.3871 C   0  0  0  0  0  0  0  0  0  0  0  0
    6.1380  -10.5104   -0.9843 C   0  0  0  0  0  0  0  0  0  0  0  0
    6.6703  -11.9347   -0.9770 C   0  0  0  0  0  0  0  0  0  0  0  0
    6.6156  -12.6791   -0.0137 O   0  0  0  0  0  0  0  0  0  0  0  0
    7.2200  -12.3029   -2.1788 N   0  0  0  0  0  0  0  0  0  0  0  0
    7.8227  -13.5858   -2.1731 O   0  0  0  0  0  0  0  0  0  0  0  0
   -0.0151    1.6732    1.9286 H   0  0  0  0  0  0  0  0  0  0  0  0
   -2.0482    5.5546    1.8774 H   0  0  0  0  0  0  0  0  0  0  0  0
    0.9819    3.3912    4.1317 H   0  0  0  0  0  0  0  0  0  0  0  0
    1.8360    3.4270    0.5037 H   0  0  0  0  0  0  0  0  0  0  0  0
    0.8488    2.1268   -0.0133 H   0  0  0  0  0  0  0  0  0  0  0  0
    2.2810    1.7136    0.9063 H   0  0  0  0  0  0  0  0  0  0  0  0
   -3.2685    5.5089   -0.3101 H   0  0  0  0  0  0  0  0  0  0  0  0
   -2.9094    3.7866   -0.4823 H   0  0  0  0  0  0  0  0  0  0  0  0
    1.0833    0.3724    4.2821 H   0  0  0  0  0  0  0  0  0  0  0  0
   -4.5035    6.2010    2.0212 H   0  0  0  0  0  0  0  0  0  0  0  0
   -4.3527    5.4019    4.0375 H   0  0  0  0  0  0  0  0  0  0  0  0
   -4.5742    3.0254    0.5645 H   0  0  0  0  0  0  0  0  0  0  0  0
   -5.3941    2.7679    2.0495 H   0  0  0  0  0  0  0  0  0  0  0  0
   -3.7316    2.1591    1.8599 H   0  0  0  0  0  0  0  0  0  0  0  0
   -0.7596    5.9272   -0.3180 H   0  0  0  0  0  0  0  0  0  0  0  0
   -1.4009    5.2138   -1.8090 H   0  0  0  0  0  0  0  0  0  0  0  0
   -0.5356    4.1956   -0.6651 H   0  0  0  0  0  0  0  0  0  0  0  0
    4.4702    2.9116    3.5023 H   0  0  0  0  0  0  0  0  0  0  0  0
    0.6153    2.4726    6.5001 H   0  0  0  0  0  0  0  0  0  0  0  0
   -1.2701    2.2633    3.9092 H   0  0  0  0  0  0  0  0  0  0  0  0
   -1.5026    0.7675    4.6772 H   0  0  0  0  0  0  0  0  0  0  0  0
   -0.9642    0.6890    3.1118 H   0  0  0  0  0  0  0  0  0  0  0  0
   -1.8913    4.1119    3.7939 H   0  0  0  0  0  0  0  0  0  0  0  0
   -4.3899    2.4535    3.9436 H   0  0  0  0  0  0  0  0  0  0  0  0
    3.2961    4.4236    5.0336 H   0  0  0  0  0  0  0  0  0  0  0  0
    2.2971    5.0047    3.7867 H   0  0  0  0  0  0  0  0  0  0  0  0
   -6.3078    4.3419    5.3266 H   0  0  0  0  0  0  0  0  0  0  0  0
   -6.4954    2.6021    5.0854 H   0  0  0  0  0  0  0  0  0  0  0  0
   -6.5061    3.6890    3.6950 H   0  0  0  0  0  0  0  0  0  0  0  0
    4.0567    4.5713    0.3066 H   0  0  0  0  0  0  0  0  0  0  0  0
    1.9619    0.5933    8.7680 H   0  0  0  0  0  0  0  0  0  0  0  0
   -1.4760    2.5524    6.1215 H   0  0  0  0  0  0  0  0  0  0  0  0
   -1.9424    2.2326    7.7303 H   0  0  0  0  0  0  0  0  0  0  0  0
   -0.2860   -1.5279    6.6810 H   0  0  0  0  0  0  0  0  0  0  0  0
   -0.9236   -0.8774    5.2075 H   0  0  0  0  0  0  0  0  0  0  0  0
   -1.9754   -1.0860    6.5670 H   0  0  0  0  0  0  0  0  0  0  0  0
   -3.9348    1.1921    7.1182 H   0  0  0  0  0  0  0  0  0  0  0  0
    6.2054    3.2798    2.0270 H   0  0  0  0  0  0  0  0  0  0  0  0
    6.5224    4.3853    0.6677 H   0  0  0  0  0  0  0  0  0  0  0  0
    5.6522    2.8620    0.4506 H   0  0  0  0  0  0  0  0  0  0  0  0
    6.0502    4.0668    3.8262 H   0  0  0  0  0  0  0  0  0  0  0  0
    5.7637    5.0220    5.2534 H   0  0  0  0  0  0  0  0  0  0  0  0
    6.5739    5.7392    3.8782 H   0  0  0  0  0  0  0  0  0  0  0  0
    4.4364   -0.0810    8.4809 H   0  0  0  0  0  0  0  0  0  0  0  0
   -0.8143   -0.7640    9.9074 H   0  0  0  0  0  0  0  0  0  0  0  0
   -1.8770   -1.0826    8.5583 H   0  0  0  0  0  0  0  0  0  0  0  0
   -2.0804    0.4108    9.5067 H   0  0  0  0  0  0  0  0  0  0  0  0
   -3.3565    0.8693    4.1343 H   0  0  0  0  0  0  0  0  0  0  0  0
   -4.8444    0.5820    4.9811 H   0  0  0  0  0  0  0  0  0  0  0  0
   -3.4675   -0.4476    5.2885 H   0  0  0  0  0  0  0  0  0  0  0  0
    2.3382    5.3921    1.6993 H   0  0  0  0  0  0  0  0  0  0  0  0
    5.1362    7.7118    2.2468 H   0  0  0  0  0  0  0  0  0  0  0  0
    6.2787    6.4616    1.7746 H   0  0  0  0  0  0  0  0  0  0  0  0
    3.2045    8.3821    5.0522 H   0  0  0  0  0  0  0  0  0  0  0  0
    2.2640    6.9036    4.8821 H   0  0  0  0  0  0  0  0  0  0  0  0
    2.7684    7.8547    3.4349 H   0  0  0  0  0  0  0  0  0  0  0  0
    3.0830    4.3850    9.2595 H   0  0  0  0  0  0  0  0  0  0  0  0
    3.3581    1.2828   10.4509 H   0  0  0  0  0  0  0  0  0  0  0  0
    6.1017    1.7185    8.8398 H   0  0  0  0  0  0  0  0  0  0  0  0
    5.0307    3.3924    9.6613 H   0  0  0  0  0  0  0  0  0  0  0  0
    5.3959    4.0798    8.1224 H   0  0  0  0  0  0  0  0  0  0  0  0
    2.7203    3.4728    6.4765 H   0  0  0  0  0  0  0  0  0  0  0  0
    3.6588    4.9681    6.8805 H   0  0  0  0  0  0  0  0  0  0  0  0
    1.9351    4.7850    7.2713 H   0  0  0  0  0  0  0  0  0  0  0  0
    3.0980    6.9786   -0.2858 H   0  0  0  0  0  0  0  0  0  0  0  0
    3.8183    8.3658   -1.0349 H   0  0  0  0  0  0  0  0  0  0  0  0
    3.4374    8.4382    0.6927 H   0  0  0  0  0  0  0  0  0  0  0  0
    7.1561    7.8800    0.1480 H   0  0  0  0  0  0  0  0  0  0  0  0
    6.0063    9.1380    0.6509 H   0  0  0  0  0  0  0  0  0  0  0  0
    6.1228    8.6458   -1.0552 H   0  0  0  0  0  0  0  0  0  0  0  0
    5.5227    2.0785    4.8751 H   0  0  0  0  0  0  0  0  0  0  0  0
    4.0756    2.2140    5.8188 H   0  0  0  0  0  0  0  0  0  0  0  0
    7.5398    1.2511    5.7128 H   0  0  0  0  0  0  0  0  0  0  0  0
    6.8402   -0.1049    6.6001 H   0  0  0  0  0  0  0  0  0  0  0  0
    7.7912    1.1382    7.4370 H   0  0  0  0  0  0  0  0  0  0  0  0
    4.1330   -0.7837    7.0301 H   0  0  0  0  0  0  0  0  0  0  0  0
    4.6852    0.8084    3.0831 H   0  0  0  0  0  0  0  0  0  0  0  0
    3.0923   -2.6565    6.2175 H   0  0  0  0  0  0  0  0  0  0  0  0
    3.5442   -1.1562    2.2095 H   0  0  0  0  0  0  0  0  0  0  0  0
    3.8446   -4.7853    5.0258 H   0  0  0  0  0  0  0  0  0  0  0  0
    2.1860   -7.4353    3.3807 H   0  0  0  0  0  0  0  0  0  0  0  0
    3.7769   -7.0272    4.0572 H   0  0  0  0  0  0  0  0  0  0  0  0
    4.5495   -6.3453    1.7254 H   0  0  0  0  0  0  0  0  0  0  0  0
    3.0213   -6.9441    1.0863 H   0  0  0  0  0  0  0  0  0  0  0  0
    3.5410   -9.2184    2.0209 H   0  0  0  0  0  0  0  0  0  0  0  0
    5.0902   -8.6081    2.6073 H   0  0  0  0  0  0  0  0  0  0  0  0
    5.7616   -8.0279    0.2675 H   0  0  0  0  0  0  0  0  0  0  0  0
    4.2054   -8.6094   -0.3299 H   0  0  0  0  0  0  0  0  0  0  0  0
    4.7029  -10.8846    0.6100 H   0  0  0  0  0  0  0  0  0  0  0  0
    6.2604  -10.3009    1.1904 H   0  0  0  0  0  0  0  0  0  0  0  0
    6.9653   -9.8222   -1.1655 H   0  0  0  0  0  0  0  0  0  0  0  0
    5.4029  -10.4112   -1.7546 H   0  0  0  0  0  0  0  0  0  0  0  0
    7.5847  -11.6252   -2.8440 H   0  0  0  0  0  0  0  0  0  0  0  0
    7.6563  -13.9163   -1.2633 H   0  0  0  0  0  0  0  0  0  0  0  0
  1  2  2  0  0  0  0
  2  3  1  0  0  0  0
  2  4  1  0  0  0  0
  3  5  1  0  0  0  0
  4  6  1  1  0  0  0
  4  7  1  0  0  0  0
  4 78  1  0  0  0  0
  5  8  1  1  0  0  0
  5  9  1  0  0  0  0
  5 79  1  0  0  0  0
  6 10  1  0  0  0  0
  6 11  1  1  0  0  0
  6 80  1  0  0  0  0
  7 81  1  0  0  0  0
  7 82  1  0  0  0  0
  7 83  1  0  0  0  0
  8 12  1  0  0  0  0
  8 13  1  1  0  0  0
  8 14  1  0  0  0  0
  9 15  1  0  0  0  0
  9 84  1  0  0  0  0
  9 85  1  0  0  0  0
 11 17  1  1  0  0  0
 11 18  1  0  0  0  0
 11 86  1  0  0  0  0
 12 87  1  0  0  0  0
 13 20  1  1  0  0  0
 13 19  1  0  0  0  0
 13 88  1  0  0  0  0
 14 89  1  0  0  0  0
 14 90  1  0  0  0  0
 14 91  1  0  0  0  0
 15 92  1  0  0  0  0
 15 93  1  0  0  0  0
 15 94  1  0  0  0  0
 16 21  1  0  0  0  0
 16 22  1  0  0  0  0
 16 10  1  0  0  0  0
 16 95  1  1  0  0  0
 17 23  1  0  0  0  0
 17 24  1  1  0  0  0
 17 96  1  0  0  0  0
 18 97  1  0  0  0  0
 18 98  1  0  0  0  0
 18 99  1  0  0  0  0
 19100  1  0  0  0  0
 20 25  1  0  0  0  0
 20 26  1  0  0  0  0
 20101  1  6  0  0  0
 21 27  1  0  0  0  0
 22 28  1  0  0  0  0
 22102  1  0  0  0  0
 22103  1  0  0  0  0
 24 30  1  1  0  0  0
 24 31  1  0  0  0  0
 24 32  1  0  0  0  0
 25 33  2  0  0  0  0
 25 34  1  0  0  0  0
 26104  1  0  0  0  0
 26105  1  0  0  0  0
 26106  1  0  0  0  0
 27 35  1  1  0  0  0
 27 36  1  0  0  0  0
 27107  1  0  0  0  0
 28 35  1  6  0  0  0
 28 38  1  0  0  0  0
 28 37  1  0  0  0  0
 29 23  1  0  0  0  0
 29 39  1  0  0  0  0
 29 40  1  1  0  0  0
 29108  1  0  0  0  0
 30 41  1  0  0  0  0
 31 34  1  0  0  0  0
 31109  1  0  0  0  0
 31110  1  0  0  0  0
 32111  1  0  0  0  0
 32112  1  0  0  0  0
 32113  1  0  0  0  0
 34 42  1  0  0  0  0
 34114  1  1  0  0  0
 35 44  1  0  0  0  0
 35 43  1  6  0  0  0
 36115  1  0  0  0  0
 36116  1  0  0  0  0
 36117  1  0  0  0  0
 37 45  1  0  0  0  0
 38118  1  0  0  0  0
 38119  1  0  0  0  0
 38120  1  0  0  0  0
 39 46  1  0  0  0  0
 40 48  1  6  0  0  0
 40 47  1  0  0  0  0
 40121  1  0  0  0  0
 41122  1  0  0  0  0
 41123  1  0  0  0  0
 41124  1  0  0  0  0
 42125  1  0  0  0  0
 42126  1  0  0  0  0
 42127  1  0  0  0  0
 43128  1  0  0  0  0
 44 49  1  0  0  0  0
 44129  1  0  0  0  0
 44130  1  0  0  0  0
 45131  1  0  0  0  0
 45132  1  0  0  0  0
 45133  1  0  0  0  0
 46 50  1  0  0  0  0
 46 51  1  0  0  0  0
 46134  1  1  0  0  0
 47135  1  0  0  0  0
 48 50  1  0  0  0  0
 48 52  1  0  0  0  0
 48136  1  1  0  0  0
 49 53  1  0  0  0  0
 49 54  1  0  0  0  0
 50137  1  0  0  0  0
 50138  1  0  0  0  0
 51139  1  0  0  0  0
 51140  1  0  0  0  0
 51141  1  0  0  0  0
 52 55  1  0  0  0  0
 52 56  1  0  0  0  0
 53142  1  0  0  0  0
 53143  1  0  0  0  0
 53144  1  0  0  0  0
 54145  1  0  0  0  0
 54146  1  0  0  0  0
 54147  1  0  0  0  0
 55 57  1  0  0  0  0
 55148  1  0  0  0  0
 55149  1  0  0  0  0
 56150  1  0  0  0  0
 56151  1  0  0  0  0
 56152  1  0  0  0  0
 57 58  2  0  0  0  0
 57 59  1  0  0  0  0
 58 60  1  0  0  0  0
 58153  1  0  0  0  0
 59 61  2  0  0  0  0
 59154  1  0  0  0  0
 60 62  2  0  0  0  0
 60155  1  0  0  0  0
 61 62  1  0  0  0  0
 61156  1  0  0  0  0
 62 63  1  0  0  0  0
 63 64  1  0  0  0  0
 63 65  2  0  0  0  0
 64 66  2  0  0  0  0
 65 67  1  0  0  0  0
 65157  1  0  0  0  0
 66 67  1  0  0  0  0
 67 68  1  0  0  0  0
 68 69  1  0  0  0  0
 68158  1  0  0  0  0
 68159  1  0  0  0  0
 69 70  1  0  0  0  0
 69160  1  0  0  0  0
 69161  1  0  0  0  0
 70 71  1  0  0  0  0
 70162  1  0  0  0  0
 70163  1  0  0  0  0
 71 72  1  0  0  0  0
 71164  1  0  0  0  0
 71165  1  0  0  0  0
 72 73  1  0  0  0  0
 72166  1  0  0  0  0
 72167  1  0  0  0  0
 73 74  1  0  0  0  0
 73168  1  0  0  0  0
 73169  1  0  0  0  0
 74 75  2  0  0  0  0
 74 76  1  0  0  0  0
 76 77  1  0  0  0  0
 76170  1  0  0  0  0
 77171  1  0  0  0  0
M  END
>  <Molecule Name>
2337358

>  <MolRegNo>
2337358

>  <m>
=

>  <Value>
2080

>  <Unit>
nM

>  <Type>
IC50

>  <pValue>
5.68

>  <Ligand Efficiency>
0

>  <Binding Efficiency>
0

>  <Surface Efficiency>
0

>  <Assay Index>
977535

>  <Assay Category>


>  <Assay Organism>
Chlorocebus sabaeus

>  <Target ID>
80583

>  <Target Name>
Vero

>  <Target Organism>
Chlorocebus sabaeus

>  <Target Description>
Target is a specific cell-line

>  <Sequence Accession>


>  <Reference>
Bioorg. Med. Chem. 23 (24), 7543-7564 (2015)

>  <Pubmed ID>
26585275

>  <DOI>
10.1016/j.bmc.2015.10.045

$$$$
2337442
 OpenBabel03252423463D

160164  0  0  0  0  0  0  0  0999 V2000
    0.4299   -0.3909    0.0872 O   0  0  0  0  0  0  0  0  0  0  0  0
    1.5965   -0.1954   -0.2079 C   0  0  0  0  0  0  0  0  0  0  0  0
    2.4477   -1.1591   -0.6572 O   0  0  0  0  0  0  0  0  0  0  0  0
    2.2817    1.1537   -0.1346 C   0  0  2  0  0  0  0  0  0  0  0  0
    1.8559   -2.4302   -1.0045 C   0  0  2  0  0  0  0  0  0  0  0  0
    2.3871    1.5383    1.3982 C   0  0  2  0  0  0  0  0  0  0  0  0
    1.5692    2.0660   -1.1465 C   0  0  0  0  0  0  0  0  0  0  0  0
    2.6868   -3.6368   -0.4114 C   0  0  2  0  0  0  0  0  0  0  0  0
    1.7621   -2.4322   -2.5437 C   0  0  0  0  0  0  0  0  0  0  0  0
    1.8027    2.8414    1.5557 O   0  0  0  0  0  0  0  0  0  0  0  0
    4.0315    1.3238    1.9975 C   0  0  1  0  0  0  0  0  0  0  0  0
    2.1229   -4.8648   -0.9190 O   0  0  0  0  0  0  0  0  0  0  0  0
    2.6201   -3.7528    1.1837 C   0  0  2  0  0  0  0  0  0  0  0  0
    4.1192   -3.5809   -0.9816 C   0  0  0  0  0  0  0  0  0  0  0  0
    0.9205   -1.2842   -3.0923 C   0  0  0  0  0  0  0  0  0  0  0  0
    0.3875    3.1202    1.4708 C   0  0  2  0  0  0  0  0  0  0  0  0
    4.4453    1.2308    3.6687 C   0  0  2  0  0  0  0  0  0  0  0  0
    4.4712    0.0427    1.2904 C   0  0  0  0  0  0  0  0  0  0  0  0
    2.2525   -2.5017    1.7639 O   0  0  0  0  0  0  0  0  0  0  0  0
    3.9300   -4.2304    1.8478 C   0  0  1  0  0  0  0  0  0  0  0  0
    0.0378    4.4858    1.6707 O   0  0  0  0  0  0  0  0  0  0  0  0
   -0.5717    2.1730    2.1482 C   0  0  0  0  0  0  0  0  0  0  0  0
    5.1440    2.4059    4.3494 O   0  0  0  0  0  0  0  0  0  0  0  0
    4.9859   -0.1168    4.3178 C   0  0  1  0  0  0  0  0  0  0  0  0
    4.1063   -3.7957    3.2971 C   0  0  0  0  0  0  0  0  0  0  0  0
    4.2473   -5.7192    1.8015 C   0  0  0  0  0  0  0  0  0  0  0  0
   -0.6028    4.9484    2.8544 C   0  0  2  0  0  0  0  0  0  0  0  0
   -0.9137    2.4931    3.6129 C   0  0  2  0  0  0  0  0  0  0  0  0
    6.5415    2.8150    4.4739 C   0  0  2  0  0  0  0  0  0  0  0  0
    4.9165   -0.0138    5.7716 O   0  0  0  0  0  0  0  0  0  0  0  0
    4.2931   -1.4438    3.9501 C   0  0  0  0  0  0  0  0  0  0  0  0
    6.4563   -0.2284    3.9425 C   0  0  0  0  0  0  0  0  0  0  0  0
    3.4275   -4.2881    4.2023 O   0  0  0  0  0  0  0  0  0  0  0  0
    5.1367   -2.7051    3.6031 C   0  0  2  0  0  0  0  0  0  0  0  0
   -1.4902    3.9362    3.6185 C   0  0  1  0  0  0  0  0  0  0  0  0
   -1.4878    6.1166    2.3668 C   0  0  0  0  0  0  0  0  0  0  0  0
    0.2392    2.2915    4.4410 O   0  0  0  0  0  0  0  0  0  0  0  0
   -1.9291    1.4024    3.9964 C   0  0  0  0  0  0  0  0  0  0  0  0
    7.5376    1.9768    5.1123 O   0  0  0  0  0  0  0  0  0  0  0  0
    6.8665    4.2320    5.0658 C   0  0  2  0  0  0  0  0  0  0  0  0
    3.6776   -0.0450    6.4834 C   0  0  0  0  0  0  0  0  0  0  0  0
    6.2570   -2.7048    2.5412 C   0  0  0  0  0  0  0  0  0  0  0  0
   -1.7677    4.4656    4.9218 O   0  0  0  0  0  0  0  0  0  0  0  0
    0.0598    2.4127    5.8521 C   0  0  0  0  0  0  0  0  0  0  0  0
    7.8185    1.9305    6.4994 C   0  0  1  0  0  0  0  0  0  0  0  0
    8.2460    4.5384    4.6316 O   0  0  0  0  0  0  0  0  0  0  0  0
    6.9224    4.3476    6.6248 C   0  0  2  0  0  0  0  0  0  0  0  0
    7.8030    3.2504    7.2432 C   0  0  0  0  0  0  0  0  0  0  0  0
    7.0923    0.8346    7.2518 C   0  0  0  0  0  0  0  0  0  0  0  0
    5.7233    4.6020    7.4557 N   0  0  0  0  0  0  0  0  0  0  0  0
    4.4688    3.9234    7.1034 C   0  0  0  0  0  0  0  0  0  0  0  0
    5.5297    6.0251    7.6942 C   0  0  0  0  0  0  0  0  0  0  0  0
    3.6707    4.4540    5.9558 C   0  0  0  0  0  0  0  0  0  0  0  0
    2.9672    3.5597    5.2293 C   0  0  0  0  0  0  0  0  0  0  0  0
    3.6003    5.7898    5.4410 C   0  0  0  0  0  0  0  0  0  0  0  0
    2.6749    3.7935    3.8502 C   0  0  0  0  0  0  0  0  0  0  0  0
    3.2716    6.0300    4.1007 C   0  0  0  0  0  0  0  0  0  0  0  0
    3.0254    4.9788    3.2342 C   0  0  0  0  0  0  0  0  0  0  0  0
    3.0774    5.2071    1.8100 C   0  0  0  0  0  0  0  0  0  0  0  0
    2.2726    6.1108    1.1681 N   0  0  0  0  0  0  0  0  0  0  0  0
    3.9598    4.6899    0.9132 C   0  0  0  0  0  0  0  0  0  0  0  0
    2.5583    6.0844   -0.1263 N   0  0  0  0  0  0  0  0  0  0  0  0
    3.5871    5.2391   -0.2856 N   0  0  0  0  0  0  0  0  0  0  0  0
    4.2753    5.1906   -1.5670 C   0  0  0  0  0  0  0  0  0  0  0  0
    4.9867    6.5237   -1.7984 C   0  0  0  0  0  0  0  0  0  0  0  0
    5.7565    6.6212   -3.1085 C   0  0  0  0  0  0  0  0  0  0  0  0
    4.8621    6.4883   -4.3413 C   0  0  0  0  0  0  0  0  0  0  0  0
    5.6168    6.7354   -5.6465 C   0  0  0  0  0  0  0  0  0  0  0  0
    6.7429    5.7310   -5.8768 C   0  0  0  0  0  0  0  0  0  0  0  0
    7.3978    5.9193   -7.2261 C   0  0  0  0  0  0  0  0  0  0  0  0
    7.1263    6.8076   -8.0170 O   0  0  0  0  0  0  0  0  0  0  0  0
    8.3584    4.9648   -7.4921 N   0  0  0  0  0  0  0  0  0  0  0  0
    9.0938    5.2006   -8.6755 O   0  0  0  0  0  0  0  0  0  0  0  0
    3.2784    1.1005   -0.5706 H   0  0  0  0  0  0  0  0  0  0  0  0
    0.8334   -2.5245   -0.6172 H   0  0  0  0  0  0  0  0  0  0  0  0
    1.8193    0.8370    2.0181 H   0  0  0  0  0  0  0  0  0  0  0  0
    0.4786    1.9651   -1.1185 H   0  0  0  0  0  0  0  0  0  0  0  0
    1.8406    1.7854   -2.1699 H   0  0  0  0  0  0  0  0  0  0  0  0
    1.8541    3.1161   -1.0327 H   0  0  0  0  0  0  0  0  0  0  0  0
    1.3451   -3.3820   -2.8929 H   0  0  0  0  0  0  0  0  0  0  0  0
    2.7581   -2.3148   -2.9835 H   0  0  0  0  0  0  0  0  0  0  0  0
    4.6275    2.1420    1.6060 H   0  0  0  0  0  0  0  0  0  0  0  0
    1.2060   -4.9343   -0.5963 H   0  0  0  0  0  0  0  0  0  0  0  0
    1.8311   -4.4602    1.4677 H   0  0  0  0  0  0  0  0  0  0  0  0
    4.1203   -3.6392   -2.0735 H   0  0  0  0  0  0  0  0  0  0  0  0
    4.7143   -4.4502   -0.6863 H   0  0  0  0  0  0  0  0  0  0  0  0
    4.6452   -2.6676   -0.6844 H   0  0  0  0  0  0  0  0  0  0  0  0
   -0.0567   -1.2338   -2.6037 H   0  0  0  0  0  0  0  0  0  0  0  0
    0.7670   -1.4072   -4.1673 H   0  0  0  0  0  0  0  0  0  0  0  0
    1.4292   -0.3259   -2.9530 H   0  0  0  0  0  0  0  0  0  0  0  0
    0.1450    3.0484    0.4195 H   0  0  0  0  0  0  0  0  0  0  0  0
    3.4409    1.2789    4.0894 H   0  0  0  0  0  0  0  0  0  0  0  0
    3.7105   -0.7248    1.3907 H   0  0  0  0  0  0  0  0  0  0  0  0
    5.3888   -0.3472    1.6596 H   0  0  0  0  0  0  0  0  0  0  0  0
    4.6832    0.1665    0.2302 H   0  0  0  0  0  0  0  0  0  0  0  0
    1.3699   -2.2352    1.4466 H   0  0  0  0  0  0  0  0  0  0  0  0
    4.7196   -3.7578    1.2869 H   0  0  0  0  0  0  0  0  0  0  0  0
   -0.2384    1.1425    2.0419 H   0  0  0  0  0  0  0  0  0  0  0  0
   -1.5139    2.2610    1.5826 H   0  0  0  0  0  0  0  0  0  0  0  0
    3.5903   -6.2946    2.4595 H   0  0  0  0  0  0  0  0  0  0  0  0
    5.2742   -5.8789    2.1623 H   0  0  0  0  0  0  0  0  0  0  0  0
    4.1879   -6.1229    0.7906 H   0  0  0  0  0  0  0  0  0  0  0  0
    0.1461    5.3814    3.5271 H   0  0  0  0  0  0  0  0  0  0  0  0
    6.8769    2.8698    3.4291 H   0  0  0  0  0  0  0  0  0  0  0  0
    3.4683   -1.2557    3.2711 H   0  0  0  0  0  0  0  0  0  0  0  0
    3.7452   -1.8051    4.8227 H   0  0  0  0  0  0  0  0  0  0  0  0
    6.9737    0.6897    3.8817 H   0  0  0  0  0  0  0  0  0  0  0  0
    6.6255   -0.4507    2.9040 H   0  0  0  0  0  0  0  0  0  0  0  0
    7.0242   -0.8905    4.5962 H   0  0  0  0  0  0  0  0  0  0  0  0
    5.6388   -3.0157    4.5299 H   0  0  0  0  0  0  0  0  0  0  0  0
   -2.4639    3.8953    3.1147 H   0  0  0  0  0  0  0  0  0  0  0  0
   -2.1825    5.7643    1.5917 H   0  0  0  0  0  0  0  0  0  0  0  0
   -0.8845    6.8993    1.8921 H   0  0  0  0  0  0  0  0  0  0  0  0
   -2.0751    6.5693    3.1713 H   0  0  0  0  0  0  0  0  0  0  0  0
   -1.3968    0.4449    4.0951 H   0  0  0  0  0  0  0  0  0  0  0  0
   -2.7034    1.2749    3.2349 H   0  0  0  0  0  0  0  0  0  0  0  0
   -2.4229    1.5958    4.9492 H   0  0  0  0  0  0  0  0  0  0  0  0
    6.2548    5.0252    4.6375 H   0  0  0  0  0  0  0  0  0  0  0  0
    3.9101   -0.0607    7.5547 H   0  0  0  0  0  0  0  0  0  0  0  0
    3.0628   -0.9280    6.3023 H   0  0  0  0  0  0  0  0  0  0  0  0
    3.0637    0.8294    6.3140 H   0  0  0  0  0  0  0  0  0  0  0  0
    5.9430   -2.2671    1.5890 H   0  0  0  0  0  0  0  0  0  0  0  0
    6.5956   -3.7239    2.3362 H   0  0  0  0  0  0  0  0  0  0  0  0
    7.1813   -2.2124    2.8428 H   0  0  0  0  0  0  0  0  0  0  0  0
   -2.1861    3.7762    5.4590 H   0  0  0  0  0  0  0  0  0  0  0  0
    0.9447    2.0181    6.3539 H   0  0  0  0  0  0  0  0  0  0  0  0
   -0.7722    1.8121    6.2217 H   0  0  0  0  0  0  0  0  0  0  0  0
   -0.0430    3.4553    6.1588 H   0  0  0  0  0  0  0  0  0  0  0  0
    8.8646    1.5878    6.5238 H   0  0  0  0  0  0  0  0  0  0  0  0
    8.7441    3.7010    4.7294 H   0  0  0  0  0  0  0  0  0  0  0  0
    7.5536    5.2326    6.8125 H   0  0  0  0  0  0  0  0  0  0  0  0
    8.8410    3.6217    7.2374 H   0  0  0  0  0  0  0  0  0  0  0  0
    7.5979    3.0994    8.3126 H   0  0  0  0  0  0  0  0  0  0  0  0
    6.0792    1.1443    7.5066 H   0  0  0  0  0  0  0  0  0  0  0  0
    7.6040    0.5940    8.1891 H   0  0  0  0  0  0  0  0  0  0  0  0
    7.0661   -0.0878    6.6692 H   0  0  0  0  0  0  0  0  0  0  0  0
    3.8108    3.8858    7.9825 H   0  0  0  0  0  0  0  0  0  0  0  0
    4.7255    2.8752    6.9069 H   0  0  0  0  0  0  0  0  0  0  0  0
    4.5383    6.2286    8.1180 H   0  0  0  0  0  0  0  0  0  0  0  0
    5.6576    6.5996    6.7692 H   0  0  0  0  0  0  0  0  0  0  0  0
    6.2612    6.4087    8.4029 H   0  0  0  0  0  0  0  0  0  0  0  0
    2.8028    2.5573    5.6106 H   0  0  0  0  0  0  0  0  0  0  0  0
    3.8079    6.6251    6.0522 H   0  0  0  0  0  0  0  0  0  0  0  0
    2.2897    2.9342    3.4058 H   0  0  0  0  0  0  0  0  0  0  0  0
    3.2937    7.0492    3.7294 H   0  0  0  0  0  0  0  0  0  0  0  0
    4.8006    4.0057    0.9685 H   0  0  0  0  0  0  0  0  0  0  0  0
    3.5189    4.9837   -2.3302 H   0  0  0  0  0  0  0  0  0  0  0  0
    4.9837    4.3558   -1.5561 H   0  0  0  0  0  0  0  0  0  0  0  0
    5.6886    6.6960   -0.9719 H   0  0  0  0  0  0  0  0  0  0  0  0
    4.2597    7.3447   -1.7565 H   0  0  0  0  0  0  0  0  0  0  0  0
    6.5429    5.8595   -3.1143 H   0  0  0  0  0  0  0  0  0  0  0  0
    6.2560    7.5982   -3.1340 H   0  0  0  0  0  0  0  0  0  0  0  0
    4.0390    7.2096   -4.2746 H   0  0  0  0  0  0  0  0  0  0  0  0
    4.4105    5.4910   -4.3765 H   0  0  0  0  0  0  0  0  0  0  0  0
    6.0201    7.7553   -5.6564 H   0  0  0  0  0  0  0  0  0  0  0  0
    4.9013    6.6780   -6.4785 H   0  0  0  0  0  0  0  0  0  0  0  0
    6.3538    4.7078   -5.8124 H   0  0  0  0  0  0  0  0  0  0  0  0
    7.5259    5.8510   -5.1185 H   0  0  0  0  0  0  0  0  0  0  0  0
    8.8358    4.4608   -6.7592 H   0  0  0  0  0  0  0  0  0  0  0  0
    8.6777    6.0226   -9.0232 H   0  0  0  0  0  0  0  0  0  0  0  0
  1  2  2  0  0  0  0
  2  3  1  0  0  0  0
  2  4  1  0  0  0  0
  3  5  1  0  0  0  0
  4  6  1  1  0  0  0
  4  7  1  0  0  0  0
  4 74  1  0  0  0  0
  5  8  1  1  0  0  0
  5  9  1  0  0  0  0
  5 75  1  0  0  0  0
  6 10  1  0  0  0  0
  6 11  1  1  0  0  0
  6 76  1  0  0  0  0
  7 77  1  0  0  0  0
  7 78  1  0  0  0  0
  7 79  1  0  0  0  0
  8 12  1  0  0  0  0
  8 13  1  1  0  0  0
  8 14  1  0  0  0  0
  9 15  1  0  0  0  0
  9 80  1  0  0  0  0
  9 81  1  0  0  0  0
 11 17  1  1  0  0  0
 11 18  1  0  0  0  0
 11 82  1  0  0  0  0
 12 83  1  0  0  0  0
 13 20  1  1  0  0  0
 13 19  1  0  0  0  0
 13 84  1  0  0  0  0
 14 85  1  0  0  0  0
 14 86  1  0  0  0  0
 14 87  1  0  0  0  0
 15 88  1  0  0  0  0
 15 89  1  0  0  0  0
 15 90  1  0  0  0  0
 16 10  1  0  0  0  0
 16 21  1  0  0  0  0
 16 22  1  0  0  0  0
 16 91  1  6  0  0  0
 17 23  1  0  0  0  0
 17 24  1  1  0  0  0
 17 92  1  0  0  0  0
 18 93  1  0  0  0  0
 18 94  1  0  0  0  0
 18 95  1  0  0  0  0
 19 96  1  0  0  0  0
 20 25  1  0  0  0  0
 20 26  1  0  0  0  0
 20 97  1  6  0  0  0
 21 27  1  0  0  0  0
 22 28  1  0  0  0  0
 22 98  1  0  0  0  0
 22 99  1  0  0  0  0
 24 30  1  1  0  0  0
 24 31  1  0  0  0  0
 24 32  1  0  0  0  0
 25 33  2  0  0  0  0
 25 34  1  0  0  0  0
 26100  1  0  0  0  0
 26101  1  0  0  0  0
 26102  1  0  0  0  0
 27 35  1  1  0  0  0
 27 36  1  0  0  0  0
 27103  1  0  0  0  0
 28 37  1  0  0  0  0
 28 38  1  0  0  0  0
 28 35  1  1  0  0  0
 29 23  1  0  0  0  0
 29 39  1  0  0  0  0
 29 40  1  1  0  0  0
 29104  1  0  0  0  0
 30 41  1  0  0  0  0
 31 34  1  0  0  0  0
 31105  1  0  0  0  0
 31106  1  0  0  0  0
 32107  1  0  0  0  0
 32108  1  0  0  0  0
 32109  1  0  0  0  0
 34 42  1  0  0  0  0
 34110  1  1  0  0  0
 35 43  1  0  0  0  0
 35111  1  6  0  0  0
 36112  1  0  0  0  0
 36113  1  0  0  0  0
 36114  1  0  0  0  0
 37 44  1  0  0  0  0
 38115  1  0  0  0  0
 38116  1  0  0  0  0
 38117  1  0  0  0  0
 39 45  1  0  0  0  0
 40 47  1  1  0  0  0
 40 46  1  0  0  0  0
 40118  1  0  0  0  0
 41119  1  0  0  0  0
 41120  1  0  0  0  0
 41121  1  0  0  0  0
 42122  1  0  0  0  0
 42123  1  0  0  0  0
 42124  1  0  0  0  0
 43125  1  0  0  0  0
 44126  1  0  0  0  0
 44127  1  0  0  0  0
 44128  1  0  0  0  0
 45 48  1  0  0  0  0
 45 49  1  0  0  0  0
 45129  1  1  0  0  0
 46130  1  0  0  0  0
 47 48  1  0  0  0  0
 47 50  1  0  0  0  0
 47131  1  1  0  0  0
 48132  1  0  0  0  0
 48133  1  0  0  0  0
 49134  1  0  0  0  0
 49135  1  0  0  0  0
 49136  1  0  0  0  0
 50 51  1  0  0  0  0
 50 52  1  0  0  0  0
 51 53  1  0  0  0  0
 51137  1  0  0  0  0
 51138  1  0  0  0  0
 52139  1  0  0  0  0
 52140  1  0  0  0  0
 52141  1  0  0  0  0
 53 54  2  0  0  0  0
 53 55  1  0  0  0  0
 54 56  1  0  0  0  0
 54142  1  0  0  0  0
 55 57  2  0  0  0  0
 55143  1  0  0  0  0
 56 58  2  0  0  0  0
 56144  1  0  0  0  0
 57 58  1  0  0  0  0
 57145  1  0  0  0  0
 58 59  1  0  0  0  0
 59 60  1  0  0  0  0
 59 61  2  0  0  0  0
 60 62  2  0  0  0  0
 61 63  1  0  0  0  0
 61146  1  0  0  0  0
 62 63  1  0  0  0  0
 63 64  1  0  0  0  0
 64 65  1  0  0  0  0
 64147  1  0  0  0  0
 64148  1  0  0  0  0
 65 66  1  0  0  0  0
 65149  1  0  0  0  0
 65150  1  0  0  0  0
 66 67  1  0  0  0  0
 66151  1  0  0  0  0
 66152  1  0  0  0  0
 67 68  1  0  0  0  0
 67153  1  0  0  0  0
 67154  1  0  0  0  0
 68 69  1  0  0  0  0
 68155  1  0  0  0  0
 68156  1  0  0  0  0
 69 70  1  0  0  0  0
 69157  1  0  0  0  0
 69158  1  0  0  0  0
 70 71  2  0  0  0  0
 70 72  1  0  0  0  0
 72 73  1  0  0  0  0
 72159  1  0  0  0  0
 73160  1  0  0  0  0
M  END
>  <Molecule Name>
2337442

>  <MolRegNo>
2337442

>  <m>
=

>  <Value>
2290

>  <Unit>
nM

>  <Type>
IC50

>  <pValue>
5.64

>  <Ligand Efficiency>
0

>  <Binding Efficiency>
0

>  <Surface Efficiency>
0

>  <Assay Index>
977533

>  <Assay Category>


>  <Assay Organism>
Homo sapiens

>  <Target ID>
80682

>  <Target Name>
A549

>  <Target Organism>
Homo sapiens

>  <Target Description>
Target is a specific cell-line

>  <Sequence Accession>


>  <Reference>
Bioorg. Med. Chem. 23 (24), 7543-7564 (2015)

>  <Pubmed ID>
26585275

>  <DOI>
10.1016/j.bmc.2015.10.045

$$$$
2337442
 OpenBabel03252423463D

160164  0  0  0  0  0  0  0  0999 V2000
    0.3834   -0.4146    0.0953 O   0  0  0  0  0  0  0  0  0  0  0  0
    1.5459   -0.2112   -0.2290 C   0  0  0  0  0  0  0  0  0  0  0  0
    2.3835   -1.1731   -0.7037 O   0  0  0  0  0  0  0  0  0  0  0  0
    2.2290    1.1386   -0.1516 C   0  0  2  0  0  0  0  0  0  0  0  0
    1.7838   -2.4466   -1.0369 C   0  0  2  0  0  0  0  0  0  0  0  0
    2.3355    1.5131    1.3877 C   0  0  2  0  0  0  0  0  0  0  0  0
    1.5138    2.0472   -1.1624 C   0  0  0  0  0  0  0  0  0  0  0  0
    2.6101   -3.6517   -0.4330 C   0  0  2  0  0  0  0  0  0  0  0  0
    1.6778   -2.4615   -2.5785 C   0  0  0  0  0  0  0  0  0  0  0  0
    1.7540    2.8159    1.5741 O   0  0  0  0  0  0  0  0  0  0  0  0
    3.9933    1.2749    1.9797 C   0  0  1  0  0  0  0  0  0  0  0  0
    2.0429   -4.8798   -0.9367 O   0  0  0  0  0  0  0  0  0  0  0  0
    2.5410   -3.7636    1.1668 C   0  0  2  0  0  0  0  0  0  0  0  0
    4.0445   -3.6035   -0.9971 C   0  0  0  0  0  0  0  0  0  0  0  0
    0.8487   -1.2996   -3.1220 C   0  0  0  0  0  0  0  0  0  0  0  0
    0.3518    3.1307    1.4360 C   0  0  2  0  0  0  0  0  0  0  0  0
    4.4719    1.1853    3.6426 C   0  0  2  0  0  0  0  0  0  0  0  0
    4.4029   -0.0030    1.2475 C   0  0  0  0  0  0  0  0  0  0  0  0
    2.1790   -2.5153    1.7540 O   0  0  0  0  0  0  0  0  0  0  0  0
    3.8486   -4.2412    1.8371 C   0  0  1  0  0  0  0  0  0  0  0  0
    0.0182    4.5055    1.6228 O   0  0  0  0  0  0  0  0  0  0  0  0
   -0.6593    2.2101    2.0635 C   0  0  0  0  0  0  0  0  0  0  0  0
    5.1405    2.3823    4.3197 O   0  0  0  0  0  0  0  0  0  0  0  0
    5.0597   -0.1587    4.2676 C   0  0  1  0  0  0  0  0  0  0  0  0
    4.0225   -3.8057    3.2918 C   0  0  0  0  0  0  0  0  0  0  0  0
    4.1627   -5.7299    1.7887 C   0  0  0  0  0  0  0  0  0  0  0  0
   -0.6424    4.9767    2.7895 C   0  0  2  0  0  0  0  0  0  0  0  0
   -1.0432    2.5246    3.5179 C   0  0  2  0  0  0  0  0  0  0  0  0
    6.5304    2.8039    4.4718 C   0  0  2  0  0  0  0  0  0  0  0  0
    4.9147    0.0354    5.7077 O   0  0  0  0  0  0  0  0  0  0  0  0
    4.2676   -1.4305    3.8952 C   0  0  0  0  0  0  0  0  0  0  0  0
    6.5227   -0.2407    3.8474 C   0  0  0  0  0  0  0  0  0  0  0  0
    3.3459   -4.2963    4.1993 O   0  0  0  0  0  0  0  0  0  0  0  0
    5.0660   -2.7310    3.6058 C   0  0  2  0  0  0  0  0  0  0  0  0
   -1.5805    3.9842    3.5205 C   0  0  1  0  0  0  0  0  0  0  0  0
   -1.4811    6.1714    2.2822 C   0  0  0  0  0  0  0  0  0  0  0  0
    0.0769    2.2898    4.3774 O   0  0  0  0  0  0  0  0  0  0  0  0
   -2.0886    1.4470    3.8508 C   0  0  0  0  0  0  0  0  0  0  0  0
    7.5309    1.9623    5.0968 O   0  0  0  0  0  0  0  0  0  0  0  0
    6.8379    4.2178    5.0753 C   0  0  2  0  0  0  0  0  0  0  0  0
    5.0174   -1.0750    6.5990 C   0  0  0  0  0  0  0  0  0  0  0  0
    6.2035   -2.7660    2.5592 C   0  0  0  0  0  0  0  0  0  0  0  0
   -1.8808    4.5126    4.8188 O   0  0  0  0  0  0  0  0  0  0  0  0
   -0.1275    2.4156    5.7835 C   0  0  0  0  0  0  0  0  0  0  0  0
    7.8986    1.9723    6.4663 C   0  0  1  0  0  0  0  0  0  0  0  0
    8.2212    4.5333    4.6526 O   0  0  0  0  0  0  0  0  0  0  0  0
    6.8832    4.3286    6.6331 C   0  0  2  0  0  0  0  0  0  0  0  0
    7.7991    3.2666    7.2451 C   0  0  0  0  0  0  0  0  0  0  0  0
    7.2686    0.8371    7.2244 C   0  0  0  0  0  0  0  0  0  0  0  0
    5.6779    4.5455    7.4709 N   0  0  0  0  0  0  0  0  0  0  0  0
    4.4411    3.8123    7.1682 C   0  0  0  0  0  0  0  0  0  0  0  0
    5.4477    5.9655    7.6917 C   0  0  0  0  0  0  0  0  0  0  0  0
    3.5940    4.3027    6.0343 C   0  0  0  0  0  0  0  0  0  0  0  0
    2.8986    3.3444    5.3085 C   0  0  0  0  0  0  0  0  0  0  0  0
    3.4785    5.6188    5.5233 C   0  0  0  0  0  0  0  0  0  0  0  0
    2.6382    3.6055    3.9746 C   0  0  0  0  0  0  0  0  0  0  0  0
    3.2027    5.8415    4.1747 C   0  0  0  0  0  0  0  0  0  0  0  0
    2.9761    4.7896    3.3184 C   0  0  0  0  0  0  0  0  0  0  0  0
    3.0624    5.0672    1.8842 C   0  0  0  0  0  0  0  0  0  0  0  0
    2.3246    6.0539    1.2684 N   0  0  0  0  0  0  0  0  0  0  0  0
    3.9501    4.5592    0.9592 C   0  0  0  0  0  0  0  0  0  0  0  0
    2.6462    6.0790   -0.0226 N   0  0  0  0  0  0  0  0  0  0  0  0
    3.5906    5.1508   -0.2151 N   0  0  0  0  0  0  0  0  0  0  0  0
    4.2565    5.0636   -1.5012 C   0  0  0  0  0  0  0  0  0  0  0  0
    5.4725    5.9821   -1.4765 C   0  0  0  0  0  0  0  0  0  0  0  0
    6.2516    6.0774   -2.7797 C   0  0  0  0  0  0  0  0  0  0  0  0
    5.4288    6.6509   -3.9314 C   0  0  0  0  0  0  0  0  0  0  0  0
    6.2988    6.8566   -5.1689 C   0  0  0  0  0  0  0  0  0  0  0  0
    5.4860    7.4017   -6.3394 C   0  0  0  0  0  0  0  0  0  0  0  0
    6.3369    7.5503   -7.5828 C   0  0  0  0  0  0  0  0  0  0  0  0
    7.5256    7.2462   -7.6544 O   0  0  0  0  0  0  0  0  0  0  0  0
    5.6502    8.0467   -8.6649 N   0  0  0  0  0  0  0  0  0  0  0  0
    6.4430    8.2982   -9.8121 O   0  0  0  0  0  0  0  0  0  0  0  0
    3.2270    1.0869   -0.5849 H   0  0  0  0  0  0  0  0  0  0  0  0
    0.7609   -2.5340   -0.6485 H   0  0  0  0  0  0  0  0  0  0  0  0
    1.7637    0.8075    1.9995 H   0  0  0  0  0  0  0  0  0  0  0  0
    0.4240    1.9479   -1.1236 H   0  0  0  0  0  0  0  0  0  0  0  0
    1.7724    1.7573   -2.1873 H   0  0  0  0  0  0  0  0  0  0  0  0
    1.8068    3.0957   -1.0600 H   0  0  0  0  0  0  0  0  0  0  0  0
    1.2425   -3.4038   -2.9178 H   0  0  0  0  0  0  0  0  0  0  0  0
    2.6715   -2.3622   -3.0272 H   0  0  0  0  0  0  0  0  0  0  0  0
    4.5975    2.0787    1.5822 H   0  0  0  0  0  0  0  0  0  0  0  0
    1.1242   -4.9428   -0.6169 H   0  0  0  0  0  0  0  0  0  0  0  0
    1.7520   -4.4735    1.4464 H   0  0  0  0  0  0  0  0  0  0  0  0
    4.0498   -3.6605   -2.0894 H   0  0  0  0  0  0  0  0  0  0  0  0
    4.6329   -4.4766   -0.6990 H   0  0  0  0  0  0  0  0  0  0  0  0
    4.5748   -2.6941   -0.6970 H   0  0  0  0  0  0  0  0  0  0  0  0
   -0.1216   -1.2318   -2.6221 H   0  0  0  0  0  0  0  0  0  0  0  0
    0.6797   -1.4232   -4.1952 H   0  0  0  0  0  0  0  0  0  0  0  0
    1.3741   -0.3498   -2.9913 H   0  0  0  0  0  0  0  0  0  0  0  0
    0.1518    3.0737    0.3799 H   0  0  0  0  0  0  0  0  0  0  0  0
    3.4804    1.1846    4.1004 H   0  0  0  0  0  0  0  0  0  0  0  0
    3.6210   -0.7427    1.2900 H   0  0  0  0  0  0  0  0  0  0  0  0
    5.2919   -0.4462    1.6429 H   0  0  0  0  0  0  0  0  0  0  0  0
    4.6611    0.1568    0.1985 H   0  0  0  0  0  0  0  0  0  0  0  0
    1.3329   -2.2003    1.3888 H   0  0  0  0  0  0  0  0  0  0  0  0
    4.6395   -3.7651    1.2804 H   0  0  0  0  0  0  0  0  0  0  0  0
   -0.3462    1.1712    1.9563 H   0  0  0  0  0  0  0  0  0  0  0  0
   -1.5773    2.3314    1.4652 H   0  0  0  0  0  0  0  0  0  0  0  0
    3.5085   -6.3047    2.4505 H   0  0  0  0  0  0  0  0  0  0  0  0
    5.1915   -5.8942    2.1417 H   0  0  0  0  0  0  0  0  0  0  0  0
    4.0943   -6.1348    0.7780 H   0  0  0  0  0  0  0  0  0  0  0  0
    0.0997    5.3843    3.4865 H   0  0  0  0  0  0  0  0  0  0  0  0
    6.8686    2.8762    3.4297 H   0  0  0  0  0  0  0  0  0  0  0  0
    3.5354   -1.2167    3.1296 H   0  0  0  0  0  0  0  0  0  0  0  0
    3.5652   -1.6688    4.7052 H   0  0  0  0  0  0  0  0  0  0  0  0
    7.0137    0.6961    3.7768 H   0  0  0  0  0  0  0  0  0  0  0  0
    6.6575   -0.4639    2.7995 H   0  0  0  0  0  0  0  0  0  0  0  0
    7.1213   -0.8837    4.4840 H   0  0  0  0  0  0  0  0  0  0  0  0
    5.5419   -3.0397    4.5439 H   0  0  0  0  0  0  0  0  0  0  0  0
   -2.5409    3.9737    2.9891 H   0  0  0  0  0  0  0  0  0  0  0  0
   -2.1588    5.8413    1.4828 H   0  0  0  0  0  0  0  0  0  0  0  0
   -0.8431    6.9405    1.8317 H   0  0  0  0  0  0  0  0  0  0  0  0
   -2.0825    6.6346    3.0701 H   0  0  0  0  0  0  0  0  0  0  0  0
   -1.5758    0.4772    3.9290 H   0  0  0  0  0  0  0  0  0  0  0  0
   -2.8489    1.3557    3.0681 H   0  0  0  0  0  0  0  0  0  0  0  0
   -2.5979    1.6176    4.7986 H   0  0  0  0  0  0  0  0  0  0  0  0
    6.2264    5.0116    4.6489 H   0  0  0  0  0  0  0  0  0  0  0  0
    5.0141   -0.6891    7.6238 H   0  0  0  0  0  0  0  0  0  0  0  0
    5.9382   -1.6358    6.4383 H   0  0  0  0  0  0  0  0  0  0  0  0
    4.1554   -1.7438    6.5514 H   0  0  0  0  0  0  0  0  0  0  0  0
    5.9230   -2.3395    1.5980 H   0  0  0  0  0  0  0  0  0  0  0  0
    6.5328   -3.7942    2.3794 H   0  0  0  0  0  0  0  0  0  0  0  0
    7.1304   -2.2796    2.8714 H   0  0  0  0  0  0  0  0  0  0  0  0
   -2.2968    3.8195    5.3525 H   0  0  0  0  0  0  0  0  0  0  0  0
    0.7184    1.9562    6.2998 H   0  0  0  0  0  0  0  0  0  0  0  0
   -1.0135    1.8816    6.1300 H   0  0  0  0  0  0  0  0  0  0  0  0
   -0.1646    3.4631    6.0914 H   0  0  0  0  0  0  0  0  0  0  0  0
    8.9650    1.7045    6.4478 H   0  0  0  0  0  0  0  0  0  0  0  0
    8.7113    3.6824    4.6941 H   0  0  0  0  0  0  0  0  0  0  0  0
    7.4903    5.2309    6.8224 H   0  0  0  0  0  0  0  0  0  0  0  0
    8.8196    3.6817    7.2899 H   0  0  0  0  0  0  0  0  0  0  0  0
    7.5707    3.0762    8.3051 H   0  0  0  0  0  0  0  0  0  0  0  0
    6.2359    1.0873    7.4671 H   0  0  0  0  0  0  0  0  0  0  0  0
    7.7852    0.6200    8.1639 H   0  0  0  0  0  0  0  0  0  0  0  0
    7.3220   -0.0624    6.6145 H   0  0  0  0  0  0  0  0  0  0  0  0
    3.8165    3.7690    8.0600 H   0  0  0  0  0  0  0  0  0  0  0  0
    4.7300    2.7647    6.9865 H   0  0  0  0  0  0  0  0  0  0  0  0
    4.4561    6.1490    8.1208 H   0  0  0  0  0  0  0  0  0  0  0  0
    5.5581    6.5304    6.7590 H   0  0  0  0  0  0  0  0  0  0  0  0
    6.1742    6.3798    8.3940 H   0  0  0  0  0  0  0  0  0  0  0  0
    2.7936    2.3547    5.7166 H   0  0  0  0  0  0  0  0  0  0  0  0
    3.6783    6.4616    6.1126 H   0  0  0  0  0  0  0  0  0  0  0  0
    2.2279    2.7504    3.4822 H   0  0  0  0  0  0  0  0  0  0  0  0
    3.2238    6.8562    3.7841 H   0  0  0  0  0  0  0  0  0  0  0  0
    4.7810    3.8720    0.9966 H   0  0  0  0  0  0  0  0  0  0  0  0
    3.5271    5.3483   -2.2692 H   0  0  0  0  0  0  0  0  0  0  0  0
    4.5349    4.0168   -1.6792 H   0  0  0  0  0  0  0  0  0  0  0  0
    6.1565    5.6330   -0.6929 H   0  0  0  0  0  0  0  0  0  0  0  0
    5.1536    6.9886   -1.1768 H   0  0  0  0  0  0  0  0  0  0  0  0
    6.6490    5.0923   -3.0509 H   0  0  0  0  0  0  0  0  0  0  0  0
    7.1157    6.7290   -2.5973 H   0  0  0  0  0  0  0  0  0  0  0  0
    4.9844    7.6073   -3.6299 H   0  0  0  0  0  0  0  0  0  0  0  0
    4.6059    5.9714   -4.1793 H   0  0  0  0  0  0  0  0  0  0  0  0
    6.7621    5.9030   -5.4524 H   0  0  0  0  0  0  0  0  0  0  0  0
    7.1189    7.5476   -4.9349 H   0  0  0  0  0  0  0  0  0  0  0  0
    5.0622    8.3795   -6.0816 H   0  0  0  0  0  0  0  0  0  0  0  0
    4.6602    6.7197   -6.5718 H   0  0  0  0  0  0  0  0  0  0  0  0
    4.8045    8.5988   -8.5746 H   0  0  0  0  0  0  0  0  0  0  0  0
    7.3330    7.9928   -9.5198 H   0  0  0  0  0  0  0  0  0  0  0  0
  1  2  2  0  0  0  0
  2  3  1  0  0  0  0
  2  4  1  0  0  0  0
  3  5  1  0  0  0  0
  4  6  1  1  0  0  0
  4  7  1  0  0  0  0
  4 74  1  0  0  0  0
  5  8  1  1  0  0  0
  5  9  1  0  0  0  0
  5 75  1  0  0  0  0
  6 10  1  0  0  0  0
  6 11  1  1  0  0  0
  6 76  1  0  0  0  0
  7 77  1  0  0  0  0
  7 78  1  0  0  0  0
  7 79  1  0  0  0  0
  8 12  1  0  0  0  0
  8 13  1  1  0  0  0
  8 14  1  0  0  0  0
  9 15  1  0  0  0  0
  9 80  1  0  0  0  0
  9 81  1  0  0  0  0
 11 17  1  1  0  0  0
 11 18  1  0  0  0  0
 11 82  1  0  0  0  0
 12 83  1  0  0  0  0
 13 20  1  1  0  0  0
 13 19  1  0  0  0  0
 13 84  1  0  0  0  0
 14 85  1  0  0  0  0
 14 86  1  0  0  0  0
 14 87  1  0  0  0  0
 15 88  1  0  0  0  0
 15 89  1  0  0  0  0
 15 90  1  0  0  0  0
 16 10  1  0  0  0  0
 16 21  1  0  0  0  0
 16 22  1  0  0  0  0
 16 91  1  6  0  0  0
 17 23  1  0  0  0  0
 17 24  1  1  0  0  0
 17 92  1  0  0  0  0
 18 93  1  0  0  0  0
 18 94  1  0  0  0  0
 18 95  1  0  0  0  0
 19 96  1  0  0  0  0
 20 25  1  0  0  0  0
 20 26  1  0  0  0  0
 20 97  1  6  0  0  0
 21 27  1  0  0  0  0
 22 28  1  0  0  0  0
 22 98  1  0  0  0  0
 22 99  1  0  0  0  0
 24 30  1  1  0  0  0
 24 31  1  0  0  0  0
 24 32  1  0  0  0  0
 25 33  2  0  0  0  0
 25 34  1  0  0  0  0
 26100  1  0  0  0  0
 26101  1  0  0  0  0
 26102  1  0  0  0  0
 27 35  1  1  0  0  0
 27 36  1  0  0  0  0
 27103  1  0  0  0  0
 28 37  1  0  0  0  0
 28 38  1  0  0  0  0
 28 35  1  1  0  0  0
 29 23  1  0  0  0  0
 29 39  1  0  0  0  0
 29 40  1  1  0  0  0
 29104  1  0  0  0  0
 30 41  1  0  0  0  0
 31 34  1  0  0  0  0
 31105  1  0  0  0  0
 31106  1  0  0  0  0
 32107  1  0  0  0  0
 32108  1  0  0  0  0
 32109  1  0  0  0  0
 34 42  1  0  0  0  0
 34110  1  1  0  0  0
 35 43  1  0  0  0  0
 35111  1  6  0  0  0
 36112  1  0  0  0  0
 36113  1  0  0  0  0
 36114  1  0  0  0  0
 37 44  1  0  0  0  0
 38115  1  0  0  0  0
 38116  1  0  0  0  0
 38117  1  0  0  0  0
 39 45  1  0  0  0  0
 40 47  1  1  0  0  0
 40 46  1  0  0  0  0
 40118  1  0  0  0  0
 41119  1  0  0  0  0
 41120  1  0  0  0  0
 41121  1  0  0  0  0
 42122  1  0  0  0  0
 42123  1  0  0  0  0
 42124  1  0  0  0  0
 43125  1  0  0  0  0
 44126  1  0  0  0  0
 44127  1  0  0  0  0
 44128  1  0  0  0  0
 45 48  1  0  0  0  0
 45 49  1  0  0  0  0
 45129  1  6  0  0  0
 46130  1  0  0  0  0
 47 48  1  0  0  0  0
 47 50  1  0  0  0  0
 47131  1  1  0  0  0
 48132  1  0  0  0  0
 48133  1  0  0  0  0
 49134  1  0  0  0  0
 49135  1  0  0  0  0
 49136  1  0  0  0  0
 50 51  1  0  0  0  0
 50 52  1  0  0  0  0
 51 53  1  0  0  0  0
 51137  1  0  0  0  0
 51138  1  0  0  0  0
 52139  1  0  0  0  0
 52140  1  0  0  0  0
 52141  1  0  0  0  0
 53 54  2  0  0  0  0
 53 55  1  0  0  0  0
 54 56  1  0  0  0  0
 54142  1  0  0  0  0
 55 57  2  0  0  0  0
 55143  1  0  0  0  0
 56 58  2  0  0  0  0
 56144  1  0  0  0  0
 57 58  1  0  0  0  0
 57145  1  0  0  0  0
 58 59  1  0  0  0  0
 59 60  1  0  0  0  0
 59 61  2  0  0  0  0
 60 62  2  0  0  0  0
 61 63  1  0  0  0  0
 61146  1  0  0  0  0
 62 63  1  0  0  0  0
 63 64  1  0  0  0  0
 64 65  1  0  0  0  0
 64147  1  0  0  0  0
 64148  1  0  0  0  0
 65 66  1  0  0  0  0
 65149  1  0  0  0  0
 65150  1  0  0  0  0
 66 67  1  0  0  0  0
 66151  1  0  0  0  0
 66152  1  0  0  0  0
 67 68  1  0  0  0  0
 67153  1  0  0  0  0
 67154  1  0  0  0  0
 68 69  1  0  0  0  0
 68155  1  0  0  0  0
 68156  1  0  0  0  0
 69 70  1  0  0  0  0
 69157  1  0  0  0  0
 69158  1  0  0  0  0
 70 71  2  0  0  0  0
 70 72  1  0  0  0  0
 72 73  1  0  0  0  0
 72159  1  0  0  0  0
 73160  1  0  0  0  0
M  END
>  <Molecule Name>
2337442

>  <MolRegNo>
2337442

>  <m>
=

>  <Value>
2860

>  <Unit>
nM

>  <Type>
IC50

>  <pValue>
5.54

>  <Ligand Efficiency>
0

>  <Binding Efficiency>
0

>  <Surface Efficiency>
0

>  <Assay Index>
977534

>  <Assay Category>


>  <Assay Organism>
Homo sapiens

>  <Target ID>
80224

>  <Target Name>
MCF7

>  <Target Organism>
Homo sapiens

>  <Target Description>
Target is a specific cell-line

>  <Sequence Accession>


>  <Reference>
Bioorg. Med. Chem. 23 (24), 7543-7564 (2015)

>  <Pubmed ID>
26585275

>  <DOI>
10.1016/j.bmc.2015.10.045

$$$$
2337442
 OpenBabel03252423463D

160164  0  0  0  0  0  0  0  0999 V2000
    0.4011   -0.5297    0.0489 O   0  0  0  0  0  0  0  0  0  0  0  0
    1.5835   -0.3432   -0.2209 C   0  0  0  0  0  0  0  0  0  0  0  0
    2.4220   -1.3221   -0.6611 O   0  0  0  0  0  0  0  0  0  0  0  0
    2.2737    1.0085   -0.1451 C   0  0  2  0  0  0  0  0  0  0  0  0
    1.8095   -2.5864   -1.0147 C   0  0  2  0  0  0  0  0  0  0  0  0
    2.3675    1.3882    1.3948 C   0  0  2  0  0  0  0  0  0  0  0  0
    1.5805    1.9351   -1.1603 C   0  0  0  0  0  0  0  0  0  0  0  0
    2.6250   -3.8028   -0.4135 C   0  0  2  0  0  0  0  0  0  0  0  0
    1.7162   -2.6041   -2.5564 C   0  0  0  0  0  0  0  0  0  0  0  0
    1.7710    2.6811    1.5798 O   0  0  0  0  0  0  0  0  0  0  0  0
    3.9984    1.1794    2.0022 C   0  0  1  0  0  0  0  0  0  0  0  0
    2.0476   -5.0224   -0.9269 O   0  0  0  0  0  0  0  0  0  0  0  0
    2.5561   -3.9288    1.1861 C   0  0  2  0  0  0  0  0  0  0  0  0
    4.0595   -3.7657   -0.9819 C   0  0  0  0  0  0  0  0  0  0  0  0
    0.8912   -1.4462   -3.1134 C   0  0  0  0  0  0  0  0  0  0  0  0
    0.3490    2.9265    1.4683 C   0  0  2  0  0  0  0  0  0  0  0  0
    4.3794    1.0786    3.6777 C   0  0  2  0  0  0  0  0  0  0  0  0
    4.4313   -0.1085    1.2978 C   0  0  0  0  0  0  0  0  0  0  0  0
    2.1816   -2.6944    1.7964 O   0  0  0  0  0  0  0  0  0  0  0  0
    3.8699   -4.3928    1.8508 C   0  0  1  0  0  0  0  0  0  0  0  0
   -0.0562    4.2802    1.6664 O   0  0  0  0  0  0  0  0  0  0  0  0
   -0.6032    1.9472    2.1084 C   0  0  0  0  0  0  0  0  0  0  0  0
    5.0527    2.2554    4.3753 O   0  0  0  0  0  0  0  0  0  0  0  0
    4.9283   -0.2710    4.3184 C   0  0  1  0  0  0  0  0  0  0  0  0
    4.0479   -3.9550    3.3004 C   0  0  0  0  0  0  0  0  0  0  0  0
    4.2062   -5.8764    1.8037 C   0  0  0  0  0  0  0  0  0  0  0  0
   -0.6765    4.7076    2.8746 C   0  0  2  0  0  0  0  0  0  0  0  0
   -0.9787    2.2312    3.5709 C   0  0  2  0  0  0  0  0  0  0  0  0
    6.4515    2.6472    4.5416 C   0  0  2  0  0  0  0  0  0  0  0  0
    4.8580   -0.1763    5.7725 O   0  0  0  0  0  0  0  0  0  0  0  0
    4.2370   -1.5990    3.9432 C   0  0  0  0  0  0  0  0  0  0  0  0
    6.4015   -0.3719    3.9387 C   0  0  0  0  0  0  0  0  0  0  0  0
    3.3731   -4.4476    4.2083 O   0  0  0  0  0  0  0  0  0  0  0  0
    5.0786   -2.8653    3.6018 C   0  0  2  0  0  0  0  0  0  0  0  0
   -1.5659    3.6709    3.6022 C   0  0  1  0  0  0  0  0  0  0  0  0
   -1.5491    5.9043    2.4391 C   0  0  0  0  0  0  0  0  0  0  0  0
    0.1645    2.0181    4.4109 O   0  0  0  0  0  0  0  0  0  0  0  0
   -1.9947    1.1237    3.8995 C   0  0  0  0  0  0  0  0  0  0  0  0
    7.4222    1.7820    5.1792 O   0  0  0  0  0  0  0  0  0  0  0  0
    6.7768    4.0531    5.1551 C   0  0  2  0  0  0  0  0  0  0  0  0
    3.6209   -0.2280    6.4865 C   0  0  0  0  0  0  0  0  0  0  0  0
    6.1986   -2.8689    2.5401 C   0  0  0  0  0  0  0  0  0  0  0  0
   -1.8603    4.1649    4.9154 O   0  0  0  0  0  0  0  0  0  0  0  0
   -0.0409    2.0986    5.8206 C   0  0  0  0  0  0  0  0  0  0  0  0
    7.7233    1.7364    6.5616 C   0  0  1  0  0  0  0  0  0  0  0  0
    8.1650    4.3498    4.7395 O   0  0  0  0  0  0  0  0  0  0  0  0
    6.8200    4.1542    6.7138 C   0  0  2  0  0  0  0  0  0  0  0  0
    7.7036    3.0497    7.3198 C   0  0  0  0  0  0  0  0  0  0  0  0
    7.0111    0.6272    7.3072 C   0  0  0  0  0  0  0  0  0  0  0  0
    5.6336    4.4047    7.5528 N   0  0  0  0  0  0  0  0  0  0  0  0
    4.3729    3.7617    7.2201 C   0  0  0  0  0  0  0  0  0  0  0  0
    5.4244    5.8124    7.8141 C   0  0  0  0  0  0  0  0  0  0  0  0
    3.5515    4.3003    6.0433 C   0  0  0  0  0  0  0  0  0  0  0  0
    2.8657    3.4007    5.2943 C   0  0  0  0  0  0  0  0  0  0  0  0
    3.3898    5.6110    5.6300 C   0  0  0  0  0  0  0  0  0  0  0  0
    2.6022    3.6856    3.9437 C   0  0  0  0  0  0  0  0  0  0  0  0
    3.0652    5.9183    4.3024 C   0  0  0  0  0  0  0  0  0  0  0  0
    2.8895    4.9130    3.3953 C   0  0  0  0  0  0  0  0  0  0  0  0
    2.8825    5.2008    1.9719 C   0  0  0  0  0  0  0  0  0  0  0  0
    2.1003    6.1720    1.4080 N   0  0  0  0  0  0  0  0  0  0  0  0
    3.7186    4.6722    1.0047 C   0  0  0  0  0  0  0  0  0  0  0  0
    2.3479    6.1976    0.1051 N   0  0  0  0  0  0  0  0  0  0  0  0
    3.3384    5.3192   -0.1310 N   0  0  0  0  0  0  0  0  0  0  0  0
    3.9637    5.3026   -1.4446 C   0  0  0  0  0  0  0  0  0  0  0  0
    4.6783    6.6340   -1.6646 C   0  0  0  0  0  0  0  0  0  0  0  0
    5.3941    6.7722   -3.0008 C   0  0  0  0  0  0  0  0  0  0  0  0
    4.4483    6.7016   -4.1975 C   0  0  0  0  0  0  0  0  0  0  0  0
    5.2047    6.9640   -5.4968 C   0  0  0  0  0  0  0  0  0  0  0  0
    4.2813    6.8641   -6.7059 C   0  0  0  0  0  0  0  0  0  0  0  0
    5.0377    7.0689   -7.9992 C   0  0  0  0  0  0  0  0  0  0  0  0
    6.2462    7.2746   -8.0785 O   0  0  0  0  0  0  0  0  0  0  0  0
    4.2396    6.9905   -9.1202 N   0  0  0  0  0  0  0  0  0  0  0  0
    4.8933    7.2803  -10.3384 O   0  0  0  0  0  0  0  0  0  0  0  0
    3.2719    0.9500   -0.5738 H   0  0  0  0  0  0  0  0  0  0  0  0
    0.7859   -2.6675   -0.6273 H   0  0  0  0  0  0  0  0  0  0  0  0
    1.8050    0.6720    2.0030 H   0  0  0  0  0  0  0  0  0  0  0  0
    0.4902    1.8413   -1.1514 H   0  0  0  0  0  0  0  0  0  0  0  0
    1.8631    1.6552   -2.1819 H   0  0  0  0  0  0  0  0  0  0  0  0
    1.8734    2.9810   -1.0347 H   0  0  0  0  0  0  0  0  0  0  0  0
    1.2788   -3.5503   -2.8941 H   0  0  0  0  0  0  0  0  0  0  0  0
    2.7099   -2.5071   -2.9956 H   0  0  0  0  0  0  0  0  0  0  0  0
    4.5977    2.0026    1.6164 H   0  0  0  0  0  0  0  0  0  0  0  0
    1.1365   -5.0950   -0.5883 H   0  0  0  0  0  0  0  0  0  0  0  0
    1.7783   -4.6552    1.4556 H   0  0  0  0  0  0  0  0  0  0  0  0
    4.0600   -3.8359   -2.0727 H   0  0  0  0  0  0  0  0  0  0  0  0
    4.6454   -4.6378   -0.6772 H   0  0  0  0  0  0  0  0  0  0  0  0
    4.5923   -2.8550   -0.6931 H   0  0  0  0  0  0  0  0  0  0  0  0
   -0.0824   -1.3750   -2.6197 H   0  0  0  0  0  0  0  0  0  0  0  0
    0.7280   -1.5845   -4.1836 H   0  0  0  0  0  0  0  0  0  0  0  0
    1.4170   -0.4941   -2.9887 H   0  0  0  0  0  0  0  0  0  0  0  0
    0.1391    2.8583    0.4110 H   0  0  0  0  0  0  0  0  0  0  0  0
    3.3679    1.1168    4.0829 H   0  0  0  0  0  0  0  0  0  0  0  0
    3.6670   -0.8737    1.3968 H   0  0  0  0  0  0  0  0  0  0  0  0
    5.3470   -0.5033    1.6651 H   0  0  0  0  0  0  0  0  0  0  0  0
    4.6472    0.0083    0.2375 H   0  0  0  0  0  0  0  0  0  0  0  0
    1.4310   -2.2869    1.3338 H   0  0  0  0  0  0  0  0  0  0  0  0
    4.6491   -3.9059    1.2880 H   0  0  0  0  0  0  0  0  0  0  0  0
   -0.2453    0.9247    1.9986 H   0  0  0  0  0  0  0  0  0  0  0  0
   -1.5320    2.0256    1.5250 H   0  0  0  0  0  0  0  0  0  0  0  0
    3.5675   -6.4579    2.4739 H   0  0  0  0  0  0  0  0  0  0  0  0
    5.2406   -6.0196    2.1496 H   0  0  0  0  0  0  0  0  0  0  0  0
    4.1361   -6.2849    0.7958 H   0  0  0  0  0  0  0  0  0  0  0  0
    0.0794    5.1045    3.5585 H   0  0  0  0  0  0  0  0  0  0  0  0
    6.8077    2.7165    3.5042 H   0  0  0  0  0  0  0  0  0  0  0  0
    3.4152   -1.4110    3.2605 H   0  0  0  0  0  0  0  0  0  0  0  0
    3.6814   -1.9602    4.8106 H   0  0  0  0  0  0  0  0  0  0  0  0
    6.9088    0.5541    3.8457 H   0  0  0  0  0  0  0  0  0  0  0  0
    6.5707   -0.6185    2.9070 H   0  0  0  0  0  0  0  0  0  0  0  0
    6.9773   -1.0193    4.6002 H   0  0  0  0  0  0  0  0  0  0  0  0
    5.5809   -3.1704    4.5292 H   0  0  0  0  0  0  0  0  0  0  0  0
   -2.5328    3.6366    3.0850 H   0  0  0  0  0  0  0  0  0  0  0  0
   -2.2553    5.5929    1.6573 H   0  0  0  0  0  0  0  0  0  0  0  0
   -0.9380    6.6962    1.9901 H   0  0  0  0  0  0  0  0  0  0  0  0
   -2.1220    6.3345    3.2658 H   0  0  0  0  0  0  0  0  0  0  0  0
   -1.4598    0.1656    3.9758 H   0  0  0  0  0  0  0  0  0  0  0  0
   -2.7535    1.0169    3.1183 H   0  0  0  0  0  0  0  0  0  0  0  0
   -2.5098    1.2819    4.8472 H   0  0  0  0  0  0  0  0  0  0  0  0
    6.1746    4.8558    4.7310 H   0  0  0  0  0  0  0  0  0  0  0  0
    3.8531   -0.2229    7.5578 H   0  0  0  0  0  0  0  0  0  0  0  0
    3.0283   -1.1290    6.3213 H   0  0  0  0  0  0  0  0  0  0  0  0
    2.9834    0.6274    6.3035 H   0  0  0  0  0  0  0  0  0  0  0  0
    5.8912   -2.4315    1.5887 H   0  0  0  0  0  0  0  0  0  0  0  0
    6.5323   -3.8920    2.3358 H   0  0  0  0  0  0  0  0  0  0  0  0
    7.1220   -2.3740    2.8406 H   0  0  0  0  0  0  0  0  0  0  0  0
   -2.2912    3.4641    5.4270 H   0  0  0  0  0  0  0  0  0  0  0  0
    0.8330    1.6814    6.3242 H   0  0  0  0  0  0  0  0  0  0  0  0
   -0.8887    1.5005    6.1573 H   0  0  0  0  0  0  0  0  0  0  0  0
   -0.1399    3.1334    6.1551 H   0  0  0  0  0  0  0  0  0  0  0  0
    8.7727    1.4020    6.5724 H   0  0  0  0  0  0  0  0  0  0  0  0
    8.6535    3.5043    4.8273 H   0  0  0  0  0  0  0  0  0  0  0  0
    7.4468    5.0363    6.9152 H   0  0  0  0  0  0  0  0  0  0  0  0
    8.7413    3.4235    7.3171 H   0  0  0  0  0  0  0  0  0  0  0  0
    7.5035    2.8855    8.3886 H   0  0  0  0  0  0  0  0  0  0  0  0
    5.9958    0.9275    7.5640 H   0  0  0  0  0  0  0  0  0  0  0  0
    7.5263    0.3827    8.2411 H   0  0  0  0  0  0  0  0  0  0  0  0
    6.9903   -0.2894    6.7143 H   0  0  0  0  0  0  0  0  0  0  0  0
    3.7283    3.6585    8.0741 H   0  0  0  0  0  0  0  0  0  0  0  0
    4.6219    2.7038    6.9698 H   0  0  0  0  0  0  0  0  0  0  0  0
    4.4411    5.9959    8.2717 H   0  0  0  0  0  0  0  0  0  0  0  0
    5.5097    6.3984    6.8923 H   0  0  0  0  0  0  0  0  0  0  0  0
    6.1689    6.1918    8.5099 H   0  0  0  0  0  0  0  0  0  0  0  0
    2.7356    2.3922    5.6379 H   0  0  0  0  0  0  0  0  0  0  0  0
    3.5746    6.4424    6.2877 H   0  0  0  0  0  0  0  0  0  0  0  0
    2.2346    2.8285    3.4292 H   0  0  0  0  0  0  0  0  0  0  0  0
    3.0143    6.9471    3.9804 H   0  0  0  0  0  0  0  0  0  0  0  0
    4.5065    3.9441    1.0074 H   0  0  0  0  0  0  0  0  0  0  0  0
    3.1609    5.1367   -2.1787 H   0  0  0  0  0  0  0  0  0  0  0  0
    4.6507    4.4565   -1.4973 H   0  0  0  0  0  0  0  0  0  0  0  0
    5.4128    6.7709   -0.8606 H   0  0  0  0  0  0  0  0  0  0  0  0
    3.9629    7.4604   -1.5666 H   0  0  0  0  0  0  0  0  0  0  0  0
    6.1724    6.0057   -3.0875 H   0  0  0  0  0  0  0  0  0  0  0  0
    5.9028    7.7449   -3.0049 H   0  0  0  0  0  0  0  0  0  0  0  0
    3.6441    7.4386   -4.0823 H   0  0  0  0  0  0  0  0  0  0  0  0
    3.9792    5.7123   -4.2481 H   0  0  0  0  0  0  0  0  0  0  0  0
    6.0242    6.2411   -5.5954 H   0  0  0  0  0  0  0  0  0  0  0  0
    5.6647    7.9598   -5.4641 H   0  0  0  0  0  0  0  0  0  0  0  0
    3.4879    7.6176   -6.6375 H   0  0  0  0  0  0  0  0  0  0  0  0
    3.8137    5.8735   -6.7392 H   0  0  0  0  0  0  0  0  0  0  0  0
    3.2427    7.1809   -9.0868 H   0  0  0  0  0  0  0  0  0  0  0  0
    5.8239    7.4167  -10.0501 H   0  0  0  0  0  0  0  0  0  0  0  0
  1  2  2  0  0  0  0
  2  3  1  0  0  0  0
  2  4  1  0  0  0  0
  3  5  1  0  0  0  0
  4  6  1  1  0  0  0
  4  7  1  0  0  0  0
  4 74  1  0  0  0  0
  5  8  1  1  0  0  0
  5  9  1  0  0  0  0
  5 75  1  0  0  0  0
  6 10  1  0  0  0  0
  6 11  1  1  0  0  0
  6 76  1  0  0  0  0
  7 77  1  0  0  0  0
  7 78  1  0  0  0  0
  7 79  1  0  0  0  0
  8 12  1  0  0  0  0
  8 13  1  1  0  0  0
  8 14  1  0  0  0  0
  9 15  1  0  0  0  0
  9 80  1  0  0  0  0
  9 81  1  0  0  0  0
 11 17  1  1  0  0  0
 11 18  1  0  0  0  0
 11 82  1  0  0  0  0
 12 83  1  0  0  0  0
 13 20  1  1  0  0  0
 13 19  1  0  0  0  0
 13 84  1  0  0  0  0
 14 85  1  0  0  0  0
 14 86  1  0  0  0  0
 14 87  1  0  0  0  0
 15 88  1  0  0  0  0
 15 89  1  0  0  0  0
 15 90  1  0  0  0  0
 16 10  1  0  0  0  0
 16 21  1  0  0  0  0
 16 22  1  0  0  0  0
 16 91  1  6  0  0  0
 17 23  1  0  0  0  0
 17 24  1  1  0  0  0
 17 92  1  0  0  0  0
 18 93  1  0  0  0  0
 18 94  1  0  0  0  0
 18 95  1  0  0  0  0
 19 96  1  0  0  0  0
 20 25  1  0  0  0  0
 20 26  1  0  0  0  0
 20 97  1  6  0  0  0
 21 27  1  0  0  0  0
 22 28  1  0  0  0  0
 22 98  1  0  0  0  0
 22 99  1  0  0  0  0
 24 30  1  1  0  0  0
 24 31  1  0  0  0  0
 24 32  1  0  0  0  0
 25 33  2  0  0  0  0
 25 34  1  0  0  0  0
 26100  1  0  0  0  0
 26101  1  0  0  0  0
 26102  1  0  0  0  0
 27 35  1  1  0  0  0
 27 36  1  0  0  0  0
 27103  1  0  0  0  0
 28 37  1  0  0  0  0
 28 38  1  0  0  0  0
 28 35  1  1  0  0  0
 29 23  1  0  0  0  0
 29 39  1  0  0  0  0
 29 40  1  1  0  0  0
 29104  1  0  0  0  0
 30 41  1  0  0  0  0
 31 34  1  0  0  0  0
 31105  1  0  0  0  0
 31106  1  0  0  0  0
 32107  1  0  0  0  0
 32108  1  0  0  0  0
 32109  1  0  0  0  0
 34 42  1  0  0  0  0
 34110  1  1  0  0  0
 35 43  1  0  0  0  0
 35111  1  6  0  0  0
 36112  1  0  0  0  0
 36113  1  0  0  0  0
 36114  1  0  0  0  0
 37 44  1  0  0  0  0
 38115  1  0  0  0  0
 38116  1  0  0  0  0
 38117  1  0  0  0  0
 39 45  1  0  0  0  0
 40 47  1  1  0  0  0
 40 46  1  0  0  0  0
 40118  1  0  0  0  0
 41119  1  0  0  0  0
 41120  1  0  0  0  0
 41121  1  0  0  0  0
 42122  1  0  0  0  0
 42123  1  0  0  0  0
 42124  1  0  0  0  0
 43125  1  0  0  0  0
 44126  1  0  0  0  0
 44127  1  0  0  0  0
 44128  1  0  0  0  0
 45 48  1  0  0  0  0
 45 49  1  0  0  0  0
 45129  1  1  0  0  0
 46130  1  0  0  0  0
 47 48  1  0  0  0  0
 47 50  1  0  0  0  0
 47131  1  1  0  0  0
 48132  1  0  0  0  0
 48133  1  0  0  0  0
 49134  1  0  0  0  0
 49135  1  0  0  0  0
 49136  1  0  0  0  0
 50 51  1  0  0  0  0
 50 52  1  0  0  0  0
 51 53  1  0  0  0  0
 51137  1  0  0  0  0
 51138  1  0  0  0  0
 52139  1  0  0  0  0
 52140  1  0  0  0  0
 52141  1  0  0  0  0
 53 54  2  0  0  0  0
 53 55  1  0  0  0  0
 54 56  1  0  0  0  0
 54142  1  0  0  0  0
 55 57  2  0  0  0  0
 55143  1  0  0  0  0
 56 58  2  0  0  0  0
 56144  1  0  0  0  0
 57 58  1  0  0  0  0
 57145  1  0  0  0  0
 58 59  1  0  0  0  0
 59 60  1  0  0  0  0
 59 61  2  0  0  0  0
 60 62  2  0  0  0  0
 61 63  1  0  0  0  0
 61146  1  0  0  0  0
 62 63  1  0  0  0  0
 63 64  1  0  0  0  0
 64 65  1  0  0  0  0
 64147  1  0  0  0  0
 64148  1  0  0  0  0
 65 66  1  0  0  0  0
 65149  1  0  0  0  0
 65150  1  0  0  0  0
 66 67  1  0  0  0  0
 66151  1  0  0  0  0
 66152  1  0  0  0  0
 67 68  1  0  0  0  0
 67153  1  0  0  0  0
 67154  1  0  0  0  0
 68 69  1  0  0  0  0
 68155  1  0  0  0  0
 68156  1  0  0  0  0
 69 70  1  0  0  0  0
 69157  1  0  0  0  0
 69158  1  0  0  0  0
 70 71  2  0  0  0  0
 70 72  1  0  0  0  0
 72 73  1  0  0  0  0
 72159  1  0  0  0  0
 73160  1  0  0  0  0
M  END
>  <Molecule Name>
2337442

>  <MolRegNo>
2337442

>  <m>
=

>  <Value>
4900

>  <Unit>
nM

>  <Type>
IC50

>  <pValue>
5.31

>  <Ligand Efficiency>
0

>  <Binding Efficiency>
0

>  <Surface Efficiency>
0

>  <Assay Index>
977535

>  <Assay Category>


>  <Assay Organism>
Chlorocebus sabaeus

>  <Target ID>
80583

>  <Target Name>
Vero

>  <Target Organism>
Chlorocebus sabaeus

>  <Target Description>
Target is a specific cell-line

>  <Sequence Accession>


>  <Reference>
Bioorg. Med. Chem. 23 (24), 7543-7564 (2015)

>  <Pubmed ID>
26585275

>  <DOI>
10.1016/j.bmc.2015.10.045

$$$$
2337386
 OpenBabel03252423463D

157161  0  0  0  0  0  0  0  0999 V2000
    0.3805   -0.7111    0.2694 O   0  0  0  0  0  0  0  0  0  0  0  0
    1.5190   -0.4559   -0.1076 C   0  0  0  0  0  0  0  0  0  0  0  0
    2.3659   -1.3577   -0.6424 O   0  0  0  0  0  0  0  0  0  0  0  0
    2.1109    0.9253   -0.0888 C   0  0  2  0  0  0  0  0  0  0  0  0
    1.7774   -2.6226   -0.9991 C   0  0  2  0  0  0  0  0  0  0  0  0
    2.2830    1.3594    1.4115 C   0  0  2  0  0  0  0  0  0  0  0  0
    1.1718    1.7289   -0.9978 C   0  0  0  0  0  0  0  0  0  0  0  0
    2.6006   -3.8235   -0.4016 C   0  0  2  0  0  0  0  0  0  0  0  0
    1.6852   -2.6024   -2.5394 C   0  0  0  0  0  0  0  0  0  0  0  0
    1.7788    2.7001    1.4717 O   0  0  0  0  0  0  0  0  0  0  0  0
    3.9388    1.1192    1.9990 C   0  0  1  0  0  0  0  0  0  0  0  0
    2.0262   -5.0444   -0.9120 O   0  0  0  0  0  0  0  0  0  0  0  0
    2.5322   -3.9412    1.1975 C   0  0  2  0  0  0  0  0  0  0  0  0
    4.0336   -3.7721   -0.9682 C   0  0  0  0  0  0  0  0  0  0  0  0
    0.8559   -1.4396   -3.0725 C   0  0  0  0  0  0  0  0  0  0  0  0
    0.3873    3.0976    1.4559 C   0  0  2  0  0  0  0  0  0  0  0  0
    4.3799    1.0485    3.6743 C   0  0  2  0  0  0  0  0  0  0  0  0
    4.3547   -0.1650    1.2936 C   0  0  0  0  0  0  0  0  0  0  0  0
    2.1554   -2.7035    1.7979 O   0  0  0  0  0  0  0  0  0  0  0  0
    3.8410   -4.4095    1.8681 C   0  0  1  0  0  0  0  0  0  0  0  0
    0.2237    4.4653    1.7878 O   0  0  0  0  0  0  0  0  0  0  0  0
   -0.6151    2.1574    2.0699 C   0  0  0  0  0  0  0  0  0  0  0  0
    5.0971    2.2219    4.3528 O   0  0  0  0  0  0  0  0  0  0  0  0
    4.9086   -0.2926    4.3279 C   0  0  1  0  0  0  0  0  0  0  0  0
    4.0168   -3.9616    3.3155 C   0  0  0  0  0  0  0  0  0  0  0  0
    4.1524   -5.8970    1.8385 C   0  0  0  0  0  0  0  0  0  0  0  0
   -0.6045    4.9110    2.8467 C   0  0  2  0  0  0  0  0  0  0  0  0
   -0.9404    2.4324    3.5390 C   0  0  2  0  0  0  0  0  0  0  0  0
    6.4971    2.6419    4.4622 C   0  0  2  0  0  0  0  0  0  0  0  0
    4.8272   -0.1832    5.7805 O   0  0  0  0  0  0  0  0  0  0  0  0
    4.2097   -1.6156    3.9671 C   0  0  0  0  0  0  0  0  0  0  0  0
    6.3774   -0.4044    3.9463 C   0  0  0  0  0  0  0  0  0  0  0  0
    3.3314   -4.4415    4.2223 O   0  0  0  0  0  0  0  0  0  0  0  0
    5.0506   -2.8743    3.6132 C   0  0  2  0  0  0  0  0  0  0  0  0
   -1.5009    3.8780    3.5704 C   0  0  1  0  0  0  0  0  0  0  0  0
   -1.4885    6.0133    2.2307 C   0  0  0  0  0  0  0  0  0  0  0  0
    0.2196    2.2038    4.3463 O   0  0  0  0  0  0  0  0  0  0  0  0
   -1.9505    1.3314    3.9021 C   0  0  0  0  0  0  0  0  0  0  0  0
    7.4999    1.8134    5.1100 O   0  0  0  0  0  0  0  0  0  0  0  0
    6.8310    4.0611    5.0456 C   0  0  2  0  0  0  0  0  0  0  0  0
    3.5717   -0.1673    6.4671 C   0  0  0  0  0  0  0  0  0  0  0  0
    6.1671   -2.8755    2.5472 C   0  0  0  0  0  0  0  0  0  0  0  0
   -1.7934    4.3880    4.8785 O   0  0  0  0  0  0  0  0  0  0  0  0
    0.0580    2.3450    5.7559 C   0  0  0  0  0  0  0  0  0  0  0  0
    7.7504    1.7694    6.5035 C   0  0  1  0  0  0  0  0  0  0  0  0
    8.2222    4.3479    4.6340 O   0  0  0  0  0  0  0  0  0  0  0  0
    6.8598    4.1936    6.6042 C   0  0  2  0  0  0  0  0  0  0  0  0
    7.7146    3.0858    7.2479 C   0  0  0  0  0  0  0  0  0  0  0  0
    7.0102    0.6720    7.2379 C   0  0  0  0  0  0  0  0  0  0  0  0
    5.6379    4.4872    7.3873 N   0  0  0  0  0  0  0  0  0  0  0  0
    4.3819    3.8504    6.9897 C   0  0  0  0  0  0  0  0  0  0  0  0
    5.4524    5.9203    7.5764 C   0  0  0  0  0  0  0  0  0  0  0  0
    3.6285    4.3893    5.7810 C   0  0  0  0  0  0  0  0  0  0  0  0
    2.9199    3.4896    5.0727 C   0  0  0  0  0  0  0  0  0  0  0  0
    3.6517    5.6311    5.1727 C   0  0  0  0  0  0  0  0  0  0  0  0
    2.7661    3.6375    3.7157 C   0  0  0  0  0  0  0  0  0  0  0  0
    3.4364    5.8266    3.8058 C   0  0  0  0  0  0  0  0  0  0  0  0
    3.1895    4.7615    2.9958 C   0  0  0  0  0  0  0  0  0  0  0  0
    3.3122    4.8672    1.5346 C   0  0  0  0  0  0  0  0  0  0  0  0
    2.5372    5.7021    0.7701 N   0  0  0  0  0  0  0  0  0  0  0  0
    4.2514    4.2799    0.6947 C   0  0  0  0  0  0  0  0  0  0  0  0
    2.9009    5.5871   -0.5040 N   0  0  0  0  0  0  0  0  0  0  0  0
    3.9312    4.7209   -0.5632 N   0  0  0  0  0  0  0  0  0  0  0  0
    4.7035    4.6056   -1.7915 C   0  0  0  0  0  0  0  0  0  0  0  0
    4.6920    3.2584   -2.5401 C   0  0  0  0  0  0  0  0  0  0  0  0
    3.3475    2.8602   -3.1391 C   0  0  0  0  0  0  0  0  0  0  0  0
    2.7400    3.7657   -4.1989 C   0  0  0  0  0  0  0  0  0  0  0  0
    1.3201    3.3149   -4.5728 C   0  0  0  0  0  0  0  0  0  0  0  0
    0.7143    4.2910   -5.5511 C   0  0  0  0  0  0  0  0  0  0  0  0
    0.5349    4.0303   -6.7384 O   0  0  0  0  0  0  0  0  0  0  0  0
    0.4181    5.5162   -5.0118 N   0  0  0  0  0  0  0  0  0  0  0  0
   -0.0918    6.4911   -5.8942 O   0  0  0  0  0  0  0  0  0  0  0  0
    3.0743    0.9615   -0.6039 H   0  0  0  0  0  0  0  0  0  0  0  0
    0.7497   -2.7258   -0.6268 H   0  0  0  0  0  0  0  0  0  0  0  0
    1.6981    0.7255    2.0838 H   0  0  0  0  0  0  0  0  0  0  0  0
    0.1126    1.5831   -0.7753 H   0  0  0  0  0  0  0  0  0  0  0  0
    1.2734    1.4147   -2.0396 H   0  0  0  0  0  0  0  0  0  0  0  0
    1.4003    2.7995   -0.9619 H   0  0  0  0  0  0  0  0  0  0  0  0
    1.2599   -3.5417   -2.9009 H   0  0  0  0  0  0  0  0  0  0  0  0
    2.6831   -2.4850   -2.9759 H   0  0  0  0  0  0  0  0  0  0  0  0
    4.5479    1.9183    1.5987 H   0  0  0  0  0  0  0  0  0  0  0  0
    1.1053   -5.0973   -0.5964 H   0  0  0  0  0  0  0  0  0  0  0  0
    1.7482   -4.6618    1.4704 H   0  0  0  0  0  0  0  0  0  0  0  0
    4.0347   -3.8252   -2.0608 H   0  0  0  0  0  0  0  0  0  0  0  0
    4.6210   -4.6465   -0.6745 H   0  0  0  0  0  0  0  0  0  0  0  0
    4.5647   -2.8626   -0.6689 H   0  0  0  0  0  0  0  0  0  0  0  0
   -0.1134   -1.3640   -2.5683 H   0  0  0  0  0  0  0  0  0  0  0  0
    0.6793   -1.5585   -4.1445 H   0  0  0  0  0  0  0  0  0  0  0  0
    1.3891   -0.4926   -2.9488 H   0  0  0  0  0  0  0  0  0  0  0  0
    0.0922    3.1611    0.4157 H   0  0  0  0  0  0  0  0  0  0  0  0
    3.3808    1.1109    4.1047 H   0  0  0  0  0  0  0  0  0  0  0  0
    3.5891   -0.9236    1.4140 H   0  0  0  0  0  0  0  0  0  0  0  0
    5.2726   -0.5628    1.6559 H   0  0  0  0  0  0  0  0  0  0  0  0
    4.5401   -0.0376    0.2286 H   0  0  0  0  0  0  0  0  0  0  0  0
    1.3300   -2.3669    1.4057 H   0  0  0  0  0  0  0  0  0  0  0  0
    4.6299   -3.9440    1.3014 H   0  0  0  0  0  0  0  0  0  0  0  0
   -0.3240    1.1206    1.9153 H   0  0  0  0  0  0  0  0  0  0  0  0
   -1.5492    2.2985    1.5021 H   0  0  0  0  0  0  0  0  0  0  0  0
    3.5113   -6.4602    2.5205 H   0  0  0  0  0  0  0  0  0  0  0  0
    5.1894   -6.0516    2.1824 H   0  0  0  0  0  0  0  0  0  0  0  0
    4.0737   -6.3163    0.8367 H   0  0  0  0  0  0  0  0  0  0  0  0
    0.0503    5.4095    3.5716 H   0  0  0  0  0  0  0  0  0  0  0  0
    6.8283    2.6908    3.4160 H   0  0  0  0  0  0  0  0  0  0  0  0
    3.3766   -1.4271    3.2980 H   0  0  0  0  0  0  0  0  0  0  0  0
    3.6704   -1.9744    4.8474 H   0  0  0  0  0  0  0  0  0  0  0  0
    6.8983    0.5112    3.9188 H   0  0  0  0  0  0  0  0  0  0  0  0
    6.5383   -0.5934    2.8987 H   0  0  0  0  0  0  0  0  0  0  0  0
    6.9463   -1.0783    4.5847 H   0  0  0  0  0  0  0  0  0  0  0  0
    5.5567   -3.1860    4.5373 H   0  0  0  0  0  0  0  0  0  0  0  0
   -2.4716    3.8549    3.0586 H   0  0  0  0  0  0  0  0  0  0  0  0
   -2.1294    5.5948    1.4437 H   0  0  0  0  0  0  0  0  0  0  0  0
   -0.8827    6.7873    1.7461 H   0  0  0  0  0  0  0  0  0  0  0  0
   -2.1305    6.4909    2.9785 H   0  0  0  0  0  0  0  0  0  0  0  0
   -1.4132    0.3748    3.9846 H   0  0  0  0  0  0  0  0  0  0  0  0
   -2.7233    1.2107    3.1373 H   0  0  0  0  0  0  0  0  0  0  0  0
   -2.4447    1.5054    4.8581 H   0  0  0  0  0  0  0  0  0  0  0  0
    6.2413    4.8603    4.6006 H   0  0  0  0  0  0  0  0  0  0  0  0
    3.7784   -0.1600    7.5437 H   0  0  0  0  0  0  0  0  0  0  0  0
    2.9446   -1.0437    6.2919 H   0  0  0  0  0  0  0  0  0  0  0  0
    2.9823    0.7191    6.2576 H   0  0  0  0  0  0  0  0  0  0  0  0
    5.8459   -2.4594    1.5873 H   0  0  0  0  0  0  0  0  0  0  0  0
    6.5179   -3.8926    2.3603 H   0  0  0  0  0  0  0  0  0  0  0  0
    7.0855   -2.3634    2.8319 H   0  0  0  0  0  0  0  0  0  0  0  0
   -2.1593    3.6733    5.4200 H   0  0  0  0  0  0  0  0  0  0  0  0
    0.9119    1.8832    6.2541 H   0  0  0  0  0  0  0  0  0  0  0  0
   -0.8181    1.8197    6.1353 H   0  0  0  0  0  0  0  0  0  0  0  0
    0.0403    3.3979    6.0455 H   0  0  0  0  0  0  0  0  0  0  0  0
    8.8014    1.4400    6.5533 H   0  0  0  0  0  0  0  0  0  0  0  0
    8.7124    3.5166    4.7769 H   0  0  0  0  0  0  0  0  0  0  0  0
    7.5020    5.0692    6.8021 H   0  0  0  0  0  0  0  0  0  0  0  0
    8.7551    3.4530    7.2726 H   0  0  0  0  0  0  0  0  0  0  0  0
    7.4807    2.9373    8.3118 H   0  0  0  0  0  0  0  0  0  0  0  0
    5.9954    0.9894    7.4805 H   0  0  0  0  0  0  0  0  0  0  0  0
    7.5067    0.4250    8.1819 H   0  0  0  0  0  0  0  0  0  0  0  0
    6.9875   -0.2468    6.6511 H   0  0  0  0  0  0  0  0  0  0  0  0
    3.6842    3.8332    7.8356 H   0  0  0  0  0  0  0  0  0  0  0  0
    4.6185    2.7832    6.8334 H   0  0  0  0  0  0  0  0  0  0  0  0
    4.4406    6.1494    7.9322 H   0  0  0  0  0  0  0  0  0  0  0  0
    5.6439    6.4612    6.6450 H   0  0  0  0  0  0  0  0  0  0  0  0
    6.1478    6.3150    8.3168 H   0  0  0  0  0  0  0  0  0  0  0  0
    2.7046    2.5161    5.5129 H   0  0  0  0  0  0  0  0  0  0  0  0
    3.8956    6.5317    5.7406 H   0  0  0  0  0  0  0  0  0  0  0  0
    2.3394    2.7685    3.3029 H   0  0  0  0  0  0  0  0  0  0  0  0
    3.5138    6.8141    3.3669 H   0  0  0  0  0  0  0  0  0  0  0  0
    5.0947    3.6361    0.8565 H   0  0  0  0  0  0  0  0  0  0  0  0
    5.7379    4.8363   -1.5151 H   0  0  0  0  0  0  0  0  0  0  0  0
    4.3721    5.4026   -2.4659 H   0  0  0  0  0  0  0  0  0  0  0  0
    4.9978    2.4631   -1.8462 H   0  0  0  0  0  0  0  0  0  0  0  0
    5.4358    3.2789   -3.3445 H   0  0  0  0  0  0  0  0  0  0  0  0
    2.6716    2.8936   -2.3101 H   0  0  0  0  0  0  0  0  0  0  0  0
    3.3831    1.8248   -3.5012 H   0  0  0  0  0  0  0  0  0  0  0  0
    3.3710    3.7840   -5.0935 H   0  0  0  0  0  0  0  0  0  0  0  0
    2.6932    4.7896   -3.8154 H   0  0  0  0  0  0  0  0  0  0  0  0
    0.6688    3.2652   -3.6901 H   0  0  0  0  0  0  0  0  0  0  0  0
    1.3229    2.3149   -5.0221 H   0  0  0  0  0  0  0  0  0  0  0  0
    0.4770    5.7594   -4.0275 H   0  0  0  0  0  0  0  0  0  0  0  0
   -0.0837    6.0176   -6.7546 H   0  0  0  0  0  0  0  0  0  0  0  0
  1  2  2  0  0  0  0
  2  3  1  0  0  0  0
  2  4  1  0  0  0  0
  3  5  1  0  0  0  0
  4  6  1  1  0  0  0
  4  7  1  0  0  0  0
  4 73  1  0  0  0  0
  5  8  1  1  0  0  0
  5  9  1  0  0  0  0
  5 74  1  0  0  0  0
  6 10  1  0  0  0  0
  6 11  1  1  0  0  0
  6 75  1  0  0  0  0
  7 76  1  0  0  0  0
  7 77  1  0  0  0  0
  7 78  1  0  0  0  0
  8 12  1  0  0  0  0
  8 13  1  1  0  0  0
  8 14  1  0  0  0  0
  9 15  1  0  0  0  0
  9 79  1  0  0  0  0
  9 80  1  0  0  0  0
 11 17  1  1  0  0  0
 11 18  1  0  0  0  0
 11 81  1  0  0  0  0
 12 82  1  0  0  0  0
 13 20  1  1  0  0  0
 13 19  1  0  0  0  0
 13 83  1  0  0  0  0
 14 84  1  0  0  0  0
 14 85  1  0  0  0  0
 14 86  1  0  0  0  0
 15 87  1  0  0  0  0
 15 88  1  0  0  0  0
 15 89  1  0  0  0  0
 16 10  1  0  0  0  0
 16 21  1  0  0  0  0
 16 22  1  0  0  0  0
 16 90  1  6  0  0  0
 17 23  1  0  0  0  0
 17 24  1  1  0  0  0
 17 91  1  0  0  0  0
 18 92  1  0  0  0  0
 18 93  1  0  0  0  0
 18 94  1  0  0  0  0
 19 95  1  0  0  0  0
 20 25  1  0  0  0  0
 20 26  1  0  0  0  0
 20 96  1  6  0  0  0
 21 27  1  0  0  0  0
 22 28  1  0  0  0  0
 22 97  1  0  0  0  0
 22 98  1  0  0  0  0
 24 30  1  1  0  0  0
 24 31  1  0  0  0  0
 24 32  1  0  0  0  0
 25 33  2  0  0  0  0
 25 34  1  0  0  0  0
 26 99  1  0  0  0  0
 26100  1  0  0  0  0
 26101  1  0  0  0  0
 27 35  1  1  0  0  0
 27 36  1  0  0  0  0
 27102  1  0  0  0  0
 28 37  1  0  0  0  0
 28 38  1  0  0  0  0
 28 35  1  1  0  0  0
 29 23  1  0  0  0  0
 29 39  1  0  0  0  0
 29 40  1  1  0  0  0
 29103  1  0  0  0  0
 30 41  1  0  0  0  0
 31 34  1  0  0  0  0
 31104  1  0  0  0  0
 31105  1  0  0  0  0
 32106  1  0  0  0  0
 32107  1  0  0  0  0
 32108  1  0  0  0  0
 34 42  1  0  0  0  0
 34109  1  1  0  0  0
 35 43  1  0  0  0  0
 35110  1  6  0  0  0
 36111  1  0  0  0  0
 36112  1  0  0  0  0
 36113  1  0  0  0  0
 37 44  1  0  0  0  0
 38114  1  0  0  0  0
 38115  1  0  0  0  0
 38116  1  0  0  0  0
 39 45  1  0  0  0  0
 40 47  1  1  0  0  0
 40 46  1  0  0  0  0
 40117  1  0  0  0  0
 41118  1  0  0  0  0
 41119  1  0  0  0  0
 41120  1  0  0  0  0
 42121  1  0  0  0  0
 42122  1  0  0  0  0
 42123  1  0  0  0  0
 43124  1  0  0  0  0
 44125  1  0  0  0  0
 44126  1  0  0  0  0
 44127  1  0  0  0  0
 45 48  1  0  0  0  0
 45 49  1  0  0  0  0
 45128  1  1  0  0  0
 46129  1  0  0  0  0
 47 48  1  0  0  0  0
 47 50  1  0  0  0  0
 47130  1  1  0  0  0
 48131  1  0  0  0  0
 48132  1  0  0  0  0
 49133  1  0  0  0  0
 49134  1  0  0  0  0
 49135  1  0  0  0  0
 50 51  1  0  0  0  0
 50 52  1  0  0  0  0
 51 53  1  0  0  0  0
 51136  1  0  0  0  0
 51137  1  0  0  0  0
 52138  1  0  0  0  0
 52139  1  0  0  0  0
 52140  1  0  0  0  0
 53 54  2  0  0  0  0
 53 55  1  0  0  0  0
 54 56  1  0  0  0  0
 54141  1  0  0  0  0
 55 57  2  0  0  0  0
 55142  1  0  0  0  0
 56 58  2  0  0  0  0
 56143  1  0  0  0  0
 57 58  1  0  0  0  0
 57144  1  0  0  0  0
 58 59  1  0  0  0  0
 59 60  1  0  0  0  0
 59 61  2  0  0  0  0
 60 62  2  0  0  0  0
 61 63  1  0  0  0  0
 61145  1  0  0  0  0
 62 63  1  0  0  0  0
 63 64  1  0  0  0  0
 64 65  1  0  0  0  0
 64146  1  0  0  0  0
 64147  1  0  0  0  0
 65 66  1  0  0  0  0
 65148  1  0  0  0  0
 65149  1  0  0  0  0
 66 67  1  0  0  0  0
 66150  1  0  0  0  0
 66151  1  0  0  0  0
 67 68  1  0  0  0  0
 67152  1  0  0  0  0
 67153  1  0  0  0  0
 68 69  1  0  0  0  0
 68154  1  0  0  0  0
 68155  1  0  0  0  0
 69 70  2  0  0  0  0
 69 71  1  0  0  0  0
 71 72  1  0  0  0  0
 71156  1  0  0  0  0
 72157  1  0  0  0  0
M  END
>  <Molecule Name>
2337386

>  <MolRegNo>
2337386

>  <m>
=

>  <Value>
785

>  <Unit>
nM

>  <Type>
IC50

>  <pValue>
6.11

>  <Ligand Efficiency>
0

>  <Binding Efficiency>
0

>  <Surface Efficiency>
0

>  <Assay Index>
977538

>  <Assay Category>


>  <Assay Organism>
Homo sapiens

>  <Target ID>
22226

>  <Target Name>
Unchecked

>  <Target Organism>


>  <Target Description>
Target has not yet been assigned

>  <Sequence Accession>


>  <Reference>
Bioorg. Med. Chem. 23 (24), 7543-7564 (2015)

>  <Pubmed ID>
26585275

>  <DOI>
10.1016/j.bmc.2015.10.045

$$$$
2337442
 OpenBabel03252423463D

160164  0  0  0  0  0  0  0  0999 V2000
    0.5626   -0.6195    0.0553 O   0  0  0  0  0  0  0  0  0  0  0  0
    1.7048   -0.3620   -0.2568 C   0  0  0  0  0  0  0  0  0  0  0  0
    2.5332   -1.3329   -0.7246 O   0  0  0  0  0  0  0  0  0  0  0  0
    2.3652    0.9873   -0.1758 C   0  0  2  0  0  0  0  0  0  0  0  0
    1.9010   -2.6007   -1.0309 C   0  0  2  0  0  0  0  0  0  0  0  0
    2.4365    1.3684    1.3641 C   0  0  2  0  0  0  0  0  0  0  0  0
    1.6334    1.9015   -1.1773 C   0  0  0  0  0  0  0  0  0  0  0  0
    2.7118   -3.8172   -0.4266 C   0  0  2  0  0  0  0  0  0  0  0  0
    1.7844   -2.6164   -2.5659 C   0  0  0  0  0  0  0  0  0  0  0  0
    1.8406    2.6640    1.5272 O   0  0  0  0  0  0  0  0  0  0  0  0
    4.0728    1.1514    1.9876 C   0  0  1  0  0  0  0  0  0  0  0  0
    2.1268   -5.0365   -0.9340 O   0  0  0  0  0  0  0  0  0  0  0  0
    2.6444   -3.9396    1.1756 C   0  0  2  0  0  0  0  0  0  0  0  0
    4.1437   -3.7833   -0.9949 C   0  0  0  0  0  0  0  0  0  0  0  0
    0.9373   -1.4658   -3.1031 C   0  0  0  0  0  0  0  0  0  0  0  0
    0.4233    2.9526    1.4346 C   0  0  2  0  0  0  0  0  0  0  0  0
    4.4746    1.0622    3.6630 C   0  0  2  0  0  0  0  0  0  0  0  0
    4.5065   -0.1367    1.2891 C   0  0  0  0  0  0  0  0  0  0  0  0
    2.2662   -2.7061    1.7854 O   0  0  0  0  0  0  0  0  0  0  0  0
    3.9604   -4.3987    1.8426 C   0  0  1  0  0  0  0  0  0  0  0  0
    0.0799    4.3141    1.6796 O   0  0  0  0  0  0  0  0  0  0  0  0
   -0.5443    1.9813    2.0627 C   0  0  0  0  0  0  0  0  0  0  0  0
    5.1653    2.2391    4.3489 O   0  0  0  0  0  0  0  0  0  0  0  0
    5.0120   -0.2864    4.3172 C   0  0  1  0  0  0  0  0  0  0  0  0
    4.1368   -3.9762    3.2937 C   0  0  0  0  0  0  0  0  0  0  0  0
    4.2911   -5.8834    1.7962 C   0  0  0  0  0  0  0  0  0  0  0  0
   -0.6499    4.7389    2.8260 C   0  0  2  0  0  0  0  0  0  0  0  0
   -0.9355    2.2650    3.5225 C   0  0  2  0  0  0  0  0  0  0  0  0
    6.5646    2.6508    4.4744 C   0  0  2  0  0  0  0  0  0  0  0  0
    4.9434   -0.1783    5.7712 O   0  0  0  0  0  0  0  0  0  0  0  0
    4.3177   -1.6153    3.9496 C   0  0  0  0  0  0  0  0  0  0  0  0
    6.4822   -0.4017    3.9453 C   0  0  0  0  0  0  0  0  0  0  0  0
    3.4597   -4.4811    4.1947 O   0  0  0  0  0  0  0  0  0  0  0  0
    5.1612   -2.8793    3.6074 C   0  0  2  0  0  0  0  0  0  0  0  0
   -1.5400    3.6944    3.5402 C   0  0  1  0  0  0  0  0  0  0  0  0
   -1.5510    5.8802    2.3027 C   0  0  0  0  0  0  0  0  0  0  0  0
    0.1986    2.0690    4.3768 O   0  0  0  0  0  0  0  0  0  0  0  0
   -1.9438    1.1495    3.8514 C   0  0  0  0  0  0  0  0  0  0  0  0
    7.5668    1.8165    5.1089 O   0  0  0  0  0  0  0  0  0  0  0  0
    6.8810    4.0648    5.0748 C   0  0  2  0  0  0  0  0  0  0  0  0
    3.7062   -0.2133    6.4852 C   0  0  0  0  0  0  0  0  0  0  0  0
    6.2854   -2.8772    2.5478 C   0  0  0  0  0  0  0  0  0  0  0  0
   -1.8685    4.1920    4.8449 O   0  0  0  0  0  0  0  0  0  0  0  0
   -0.0124    2.1874    5.7831 C   0  0  0  0  0  0  0  0  0  0  0  0
    7.8529    1.7646    6.4949 C   0  0  1  0  0  0  0  0  0  0  0  0
    8.2597    4.3836    4.6502 O   0  0  0  0  0  0  0  0  0  0  0  0
    6.9269    4.1689    6.6342 C   0  0  2  0  0  0  0  0  0  0  0  0
    7.8140    3.0764    7.2518 C   0  0  0  0  0  0  0  0  0  0  0  0
    7.1524    0.6460    7.2398 C   0  0  0  0  0  0  0  0  0  0  0  0
    5.7156    4.4073    7.4548 N   0  0  0  0  0  0  0  0  0  0  0  0
    4.4683    3.7281    7.0953 C   0  0  0  0  0  0  0  0  0  0  0  0
    5.5182    5.8301    7.7017 C   0  0  0  0  0  0  0  0  0  0  0  0
    3.6604    4.2779    5.9379 C   0  0  0  0  0  0  0  0  0  0  0  0
    2.9341    3.3748    5.2239 C   0  0  0  0  0  0  0  0  0  0  0  0
    3.5804    5.5757    5.4445 C   0  0  0  0  0  0  0  0  0  0  0  0
    2.6799    3.6179    3.8846 C   0  0  0  0  0  0  0  0  0  0  0  0
    3.2680    5.8404    4.1066 C   0  0  0  0  0  0  0  0  0  0  0  0
    3.0133    4.8004    3.2485 C   0  0  0  0  0  0  0  0  0  0  0  0
    3.0728    5.0349    1.8135 C   0  0  0  0  0  0  0  0  0  0  0  0
    2.3025    5.9694    1.1633 N   0  0  0  0  0  0  0  0  0  0  0  0
    3.9705    4.5039    0.9034 C   0  0  0  0  0  0  0  0  0  0  0  0
    2.6209    5.9613   -0.1256 N   0  0  0  0  0  0  0  0  0  0  0  0
    3.6104    5.0718   -0.2846 N   0  0  0  0  0  0  0  0  0  0  0  0
    4.3080    4.9965   -1.5567 C   0  0  0  0  0  0  0  0  0  0  0  0
    5.5315    5.9072   -1.5082 C   0  0  0  0  0  0  0  0  0  0  0  0
    6.3304    5.9938   -2.8036 C   0  0  0  0  0  0  0  0  0  0  0  0
    5.5323    6.5781   -3.9680 C   0  0  0  0  0  0  0  0  0  0  0  0
    6.4220    6.7516   -5.1967 C   0  0  0  0  0  0  0  0  0  0  0  0
    5.6403    7.3138   -6.3799 C   0  0  0  0  0  0  0  0  0  0  0  0
    6.5174    7.4585   -7.6051 C   0  0  0  0  0  0  0  0  0  0  0  0
    7.7056    7.1525   -7.6567 O   0  0  0  0  0  0  0  0  0  0  0  0
    5.8596    7.9802   -8.6912 N   0  0  0  0  0  0  0  0  0  0  0  0
    6.6129    8.0815   -9.8817 O   0  0  0  0  0  0  0  0  0  0  0  0
    3.3670    0.9586   -0.6026 H   0  0  0  0  0  0  0  0  0  0  0  0
    0.8778   -2.6792   -0.6294 H   0  0  0  0  0  0  0  0  0  0  0  0
    1.8627    0.6593    1.9693 H   0  0  0  0  0  0  0  0  0  0  0  0
    0.5449    1.8029   -1.1296 H   0  0  0  0  0  0  0  0  0  0  0  0
    1.8837    1.6190   -2.2061 H   0  0  0  0  0  0  0  0  0  0  0  0
    1.9194    2.9504   -1.0701 H   0  0  0  0  0  0  0  0  0  0  0  0
    1.3570   -3.5632   -2.9034 H   0  0  0  0  0  0  0  0  0  0  0  0
    2.7766   -2.5043   -3.0169 H   0  0  0  0  0  0  0  0  0  0  0  0
    4.6794    1.9630    1.5980 H   0  0  0  0  0  0  0  0  0  0  0  0
    1.2138   -5.0960   -0.5980 H   0  0  0  0  0  0  0  0  0  0  0  0
    1.8690   -4.6683    1.4469 H   0  0  0  0  0  0  0  0  0  0  0  0
    4.1428   -3.8450   -2.0866 H   0  0  0  0  0  0  0  0  0  0  0  0
    4.7272   -4.6582   -0.6942 H   0  0  0  0  0  0  0  0  0  0  0  0
    4.6826   -2.8761   -0.7021 H   0  0  0  0  0  0  0  0  0  0  0  0
   -0.0318   -1.4130   -2.5981 H   0  0  0  0  0  0  0  0  0  0  0  0
    0.7645   -1.5935   -4.1740 H   0  0  0  0  0  0  0  0  0  0  0  0
    1.4470   -0.5054   -2.9767 H   0  0  0  0  0  0  0  0  0  0  0  0
    0.2003    2.9241    0.3767 H   0  0  0  0  0  0  0  0  0  0  0  0
    3.4684    1.1080    4.0777 H   0  0  0  0  0  0  0  0  0  0  0  0
    3.7421   -0.9016    1.3924 H   0  0  0  0  0  0  0  0  0  0  0  0
    5.4233   -0.5259    1.6596 H   0  0  0  0  0  0  0  0  0  0  0  0
    4.7200   -0.0193    0.2288 H   0  0  0  0  0  0  0  0  0  0  0  0
    1.5065   -2.3060    1.3318 H   0  0  0  0  0  0  0  0  0  0  0  0
    4.7419   -3.9129    1.2800 H   0  0  0  0  0  0  0  0  0  0  0  0
   -0.1928    0.9575    1.9495 H   0  0  0  0  0  0  0  0  0  0  0  0
   -1.4692    2.0656    1.4695 H   0  0  0  0  0  0  0  0  0  0  0  0
    3.6522   -6.4615    2.4691 H   0  0  0  0  0  0  0  0  0  0  0  0
    5.3244   -6.0305    2.1411 H   0  0  0  0  0  0  0  0  0  0  0  0
    4.2168   -6.2955    0.7903 H   0  0  0  0  0  0  0  0  0  0  0  0
    0.0468    5.1938    3.5398 H   0  0  0  0  0  0  0  0  0  0  0  0
    6.9004    2.7109    3.4301 H   0  0  0  0  0  0  0  0  0  0  0  0
    3.4933   -1.4269    3.2696 H   0  0  0  0  0  0  0  0  0  0  0  0
    3.7689   -1.9740    4.8222 H   0  0  0  0  0  0  0  0  0  0  0  0
    7.0058    0.5125    3.9065 H   0  0  0  0  0  0  0  0  0  0  0  0
    6.6567   -0.6102    2.9045 H   0  0  0  0  0  0  0  0  0  0  0  0
    7.0423   -1.0757    4.5935 H   0  0  0  0  0  0  0  0  0  0  0  0
    5.6606   -3.1878    4.5359 H   0  0  0  0  0  0  0  0  0  0  0  0
   -2.4980    3.6451    3.0078 H   0  0  0  0  0  0  0  0  0  0  0  0
   -2.2062    5.5074    1.5034 H   0  0  0  0  0  0  0  0  0  0  0  0
   -0.9551    6.6816    1.8505 H   0  0  0  0  0  0  0  0  0  0  0  0
   -2.1816    6.3145    3.0848 H   0  0  0  0  0  0  0  0  0  0  0  0
   -1.4022    0.1955    3.9279 H   0  0  0  0  0  0  0  0  0  0  0  0
   -2.7018    1.0403    3.0704 H   0  0  0  0  0  0  0  0  0  0  0  0
   -2.4597    1.3028    4.7996 H   0  0  0  0  0  0  0  0  0  0  0  0
    6.2679    4.8578    4.6494 H   0  0  0  0  0  0  0  0  0  0  0  0
    3.9408   -0.2366    7.5559 H   0  0  0  0  0  0  0  0  0  0  0  0
    3.0877   -1.0923    6.2984 H   0  0  0  0  0  0  0  0  0  0  0  0
    3.0935    0.6650    6.3254 H   0  0  0  0  0  0  0  0  0  0  0  0
    5.9770   -2.4422    1.5924 H   0  0  0  0  0  0  0  0  0  0  0  0
    6.6257   -3.8960    2.3462 H   0  0  0  0  0  0  0  0  0  0  0  0
    7.2083   -2.3816    2.8498 H   0  0  0  0  0  0  0  0  0  0  0  0
   -2.2821    3.4825    5.3591 H   0  0  0  0  0  0  0  0  0  0  0  0
    0.8480    1.7571    6.3005 H   0  0  0  0  0  0  0  0  0  0  0  0
   -0.8795    1.6227    6.1282 H   0  0  0  0  0  0  0  0  0  0  0  0
   -0.0846    3.2330    6.0913 H   0  0  0  0  0  0  0  0  0  0  0  0
    8.9061    1.4430    6.5126 H   0  0  0  0  0  0  0  0  0  0  0  0
    8.7599    3.5423    4.7255 H   0  0  0  0  0  0  0  0  0  0  0  0
    7.5505    5.0573    6.8315 H   0  0  0  0  0  0  0  0  0  0  0  0
    8.8477    3.4601    7.2601 H   0  0  0  0  0  0  0  0  0  0  0  0
    7.6014    2.9131    8.3179 H   0  0  0  0  0  0  0  0  0  0  0  0
    6.1420    0.9403    7.5230 H   0  0  0  0  0  0  0  0  0  0  0  0
    7.6871    0.3923    8.1609 H   0  0  0  0  0  0  0  0  0  0  0  0
    7.1209   -0.2654    6.6411 H   0  0  0  0  0  0  0  0  0  0  0  0
    3.8148    3.6705    7.9738 H   0  0  0  0  0  0  0  0  0  0  0  0
    4.7303    2.6749    6.8964 H   0  0  0  0  0  0  0  0  0  0  0  0
    4.5257    6.0275    8.1250 H   0  0  0  0  0  0  0  0  0  0  0  0
    5.6452    6.4076    6.7788 H   0  0  0  0  0  0  0  0  0  0  0  0
    6.2485    6.2163    8.4117 H   0  0  0  0  0  0  0  0  0  0  0  0
    2.7741    2.3776    5.5976 H   0  0  0  0  0  0  0  0  0  0  0  0
    3.8340    6.4285    6.0454 H   0  0  0  0  0  0  0  0  0  0  0  0
    2.2831    2.7526    3.4023 H   0  0  0  0  0  0  0  0  0  0  0  0
    3.2924    6.8491    3.7221 H   0  0  0  0  0  0  0  0  0  0  0  0
    4.7962    3.8154    0.9647 H   0  0  0  0  0  0  0  0  0  0  0  0
    3.6009    5.2959   -2.3396 H   0  0  0  0  0  0  0  0  0  0  0  0
    4.5853    3.9516   -1.7417 H   0  0  0  0  0  0  0  0  0  0  0  0
    6.2047    5.5508   -0.7180 H   0  0  0  0  0  0  0  0  0  0  0  0
    5.2214    6.9171   -1.2117 H   0  0  0  0  0  0  0  0  0  0  0  0
    6.7169    5.0035   -3.0708 H   0  0  0  0  0  0  0  0  0  0  0  0
    7.2028    6.6328   -2.6132 H   0  0  0  0  0  0  0  0  0  0  0  0
    5.1079    7.5471   -3.6783 H   0  0  0  0  0  0  0  0  0  0  0  0
    4.6963    5.9171   -4.2206 H   0  0  0  0  0  0  0  0  0  0  0  0
    6.8609    5.7838   -5.4699 H   0  0  0  0  0  0  0  0  0  0  0  0
    7.2581    7.4205   -4.9563 H   0  0  0  0  0  0  0  0  0  0  0  0
    5.2290    8.2978   -6.1259 H   0  0  0  0  0  0  0  0  0  0  0  0
    4.8065    6.6470   -6.6293 H   0  0  0  0  0  0  0  0  0  0  0  0
    4.8589    8.1266   -8.7578 H   0  0  0  0  0  0  0  0  0  0  0  0
    7.4983    7.7657   -9.5930 H   0  0  0  0  0  0  0  0  0  0  0  0
  1  2  2  0  0  0  0
  2  3  1  0  0  0  0
  2  4  1  0  0  0  0
  3  5  1  0  0  0  0
  4  6  1  1  0  0  0
  4  7  1  0  0  0  0
  4 74  1  0  0  0  0
  5  8  1  1  0  0  0
  5  9  1  0  0  0  0
  5 75  1  0  0  0  0
  6 10  1  0  0  0  0
  6 11  1  1  0  0  0
  6 76  1  0  0  0  0
  7 77  1  0  0  0  0
  7 78  1  0  0  0  0
  7 79  1  0  0  0  0
  8 12  1  0  0  0  0
  8 13  1  1  0  0  0
  8 14  1  0  0  0  0
  9 15  1  0  0  0  0
  9 80  1  0  0  0  0
  9 81  1  0  0  0  0
 11 17  1  1  0  0  0
 11 18  1  0  0  0  0
 11 82  1  0  0  0  0
 12 83  1  0  0  0  0
 13 20  1  1  0  0  0
 13 19  1  0  0  0  0
 13 84  1  0  0  0  0
 14 85  1  0  0  0  0
 14 86  1  0  0  0  0
 14 87  1  0  0  0  0
 15 88  1  0  0  0  0
 15 89  1  0  0  0  0
 15 90  1  0  0  0  0
 16 10  1  0  0  0  0
 16 21  1  0  0  0  0
 16 22  1  0  0  0  0
 16 91  1  6  0  0  0
 17 23  1  0  0  0  0
 17 24  1  1  0  0  0
 17 92  1  0  0  0  0
 18 93  1  0  0  0  0
 18 94  1  0  0  0  0
 18 95  1  0  0  0  0
 19 96  1  0  0  0  0
 20 25  1  0  0  0  0
 20 26  1  0  0  0  0
 20 97  1  6  0  0  0
 21 27  1  0  0  0  0
 22 28  1  0  0  0  0
 22 98  1  0  0  0  0
 22 99  1  0  0  0  0
 24 30  1  1  0  0  0
 24 31  1  0  0  0  0
 24 32  1  0  0  0  0
 25 33  2  0  0  0  0
 25 34  1  0  0  0  0
 26100  1  0  0  0  0
 26101  1  0  0  0  0
 26102  1  0  0  0  0
 27 35  1  1  0  0  0
 27 36  1  0  0  0  0
 27103  1  0  0  0  0
 28 37  1  0  0  0  0
 28 38  1  0  0  0  0
 28 35  1  1  0  0  0
 29 23  1  0  0  0  0
 29 39  1  0  0  0  0
 29 40  1  1  0  0  0
 29104  1  0  0  0  0
 30 41  1  0  0  0  0
 31 34  1  0  0  0  0
 31105  1  0  0  0  0
 31106  1  0  0  0  0
 32107  1  0  0  0  0
 32108  1  0  0  0  0
 32109  1  0  0  0  0
 34 42  1  0  0  0  0
 34110  1  1  0  0  0
 35 43  1  0  0  0  0
 35111  1  6  0  0  0
 36112  1  0  0  0  0
 36113  1  0  0  0  0
 36114  1  0  0  0  0
 37 44  1  0  0  0  0
 38115  1  0  0  0  0
 38116  1  0  0  0  0
 38117  1  0  0  0  0
 39 45  1  0  0  0  0
 40 47  1  1  0  0  0
 40 46  1  0  0  0  0
 40118  1  0  0  0  0
 41119  1  0  0  0  0
 41120  1  0  0  0  0
 41121  1  0  0  0  0
 42122  1  0  0  0  0
 42123  1  0  0  0  0
 42124  1  0  0  0  0
 43125  1  0  0  0  0
 44126  1  0  0  0  0
 44127  1  0  0  0  0
 44128  1  0  0  0  0
 45 48  1  0  0  0  0
 45 49  1  0  0  0  0
 45129  1  1  0  0  0
 46130  1  0  0  0  0
 47 48  1  0  0  0  0
 47 50  1  0  0  0  0
 47131  1  1  0  0  0
 48132  1  0  0  0  0
 48133  1  0  0  0  0
 49134  1  0  0  0  0
 49135  1  0  0  0  0
 49136  1  0  0  0  0
 50 51  1  0  0  0  0
 50 52  1  0  0  0  0
 51 53  1  0  0  0  0
 51137  1  0  0  0  0
 51138  1  0  0  0  0
 52139  1  0  0  0  0
 52140  1  0  0  0  0
 52141  1  0  0  0  0
 53 54  2  0  0  0  0
 53 55  1  0  0  0  0
 54 56  1  0  0  0  0
 54142  1  0  0  0  0
 55 57  2  0  0  0  0
 55143  1  0  0  0  0
 56 58  2  0  0  0  0
 56144  1  0  0  0  0
 57 58  1  0  0  0  0
 57145  1  0  0  0  0
 58 59  1  0  0  0  0
 59 60  1  0  0  0  0
 59 61  2  0  0  0  0
 60 62  2  0  0  0  0
 61 63  1  0  0  0  0
 61146  1  0  0  0  0
 62 63  1  0  0  0  0
 63 64  1  0  0  0  0
 64 65  1  0  0  0  0
 64147  1  0  0  0  0
 64148  1  0  0  0  0
 65 66  1  0  0  0  0
 65149  1  0  0  0  0
 65150  1  0  0  0  0
 66 67  1  0  0  0  0
 66151  1  0  0  0  0
 66152  1  0  0  0  0
 67 68  1  0  0  0  0
 67153  1  0  0  0  0
 67154  1  0  0  0  0
 68 69  1  0  0  0  0
 68155  1  0  0  0  0
 68156  1  0  0  0  0
 69 70  1  0  0  0  0
 69157  1  0  0  0  0
 69158  1  0  0  0  0
 70 71  2  0  0  0  0
 70 72  1  0  0  0  0
 72 73  1  0  0  0  0
 72159  1  0  0  0  0
 73160  1  0  0  0  0
M  END
>  <Molecule Name>
2337442

>  <MolRegNo>
2337442

>  <m>
=

>  <Value>
243

>  <Unit>
nM

>  <Type>
IC50

>  <pValue>
6.61

>  <Ligand Efficiency>
0

>  <Binding Efficiency>
0

>  <Surface Efficiency>
0

>  <Assay Index>
977538

>  <Assay Category>


>  <Assay Organism>
Homo sapiens

>  <Target ID>
22226

>  <Target Name>
Unchecked

>  <Target Organism>


>  <Target Description>
Target has not yet been assigned

>  <Sequence Accession>


>  <Reference>
Bioorg. Med. Chem. 23 (24), 7543-7564 (2015)

>  <Pubmed ID>
26585275

>  <DOI>
10.1016/j.bmc.2015.10.045

$$$$
2337377
 OpenBabel03252423463D

168172  0  0  0  0  0  0  0  0999 V2000
    0.6854   -0.2946    0.0145 O   0  0  0  0  0  0  0  0  0  0  0  0
    1.9055   -0.2099   -0.0405 C   0  0  0  0  0  0  0  0  0  0  0  0
    2.7175   -1.2536   -0.3554 O   0  0  0  0  0  0  0  0  0  0  0  0
    2.6973    1.0497    0.2681 C   0  0  2  0  0  0  0  0  0  0  0  0
    2.0687   -2.4918   -0.7488 C   0  0  2  0  0  0  0  0  0  0  0  0
    2.8161    1.1782    1.8742 C   0  0  2  0  0  0  0  0  0  0  0  0
    2.1230    2.1376   -0.6628 C   0  0  0  0  0  0  0  0  0  0  0  0
    2.8892   -3.7159   -0.1737 C   0  0  2  0  0  0  0  0  0  0  0  0
    1.9461   -2.4997   -2.2912 C   0  0  0  0  0  0  0  0  0  0  0  0
    2.1251    2.3000    2.4553 O   0  0  0  0  0  0  0  0  0  0  0  0
    4.3361    1.1301    2.4028 C   0  0  1  0  0  0  0  0  0  0  0  0
    2.2825   -4.9371   -0.6428 O   0  0  0  0  0  0  0  0  0  0  0  0
    2.9040   -3.7909    1.4290 C   0  0  2  0  0  0  0  0  0  0  0  0
    4.2996   -3.6902   -0.7943 C   0  0  0  0  0  0  0  0  0  0  0  0
    1.1069   -1.3634   -2.8650 C   0  0  0  0  0  0  0  0  0  0  0  0
    0.7469    2.4098    2.1062 C   0  0  2  0  0  0  0  0  0  0  0  0
    4.6607    1.1570    4.0013 C   0  0  2  0  0  0  0  0  0  0  0  0
    5.0491   -0.0241    1.7088 C   0  0  0  0  0  0  0  0  0  0  0  0
    2.6404   -2.5136    2.0153 O   0  0  0  0  0  0  0  0  0  0  0  0
    4.2238   -4.3161    2.0500 C   0  0  1  0  0  0  0  0  0  0  0  0
    0.1590    3.6386    2.4259 O   0  0  0  0  0  0  0  0  0  0  0  0
   -0.1673    1.2701    2.4647 C   0  0  0  0  0  0  0  0  0  0  0  0
    5.7068    2.1509    4.2691 O   0  0  0  0  0  0  0  0  0  0  0  0
    5.2871   -0.1849    4.7599 C   0  0  1  0  0  0  0  0  0  0  0  0
    4.4226   -3.9102    3.5189 C   0  0  0  0  0  0  0  0  0  0  0  0
    4.4433   -5.8231    1.9356 C   0  0  0  0  0  0  0  0  0  0  0  0
   -0.3190    3.8323    3.7480 C   0  0  2  0  0  0  0  0  0  0  0  0
   -0.5801    1.2210    3.9274 C   0  0  2  0  0  0  0  0  0  0  0  0
    5.3615    3.5192    4.3923 C   0  0  2  0  0  0  0  0  0  0  0  0
    5.2068   -0.0232    6.2214 O   0  0  0  0  0  0  0  0  0  0  0  0
    4.6501   -1.5657    4.3833 C   0  0  0  0  0  0  0  0  0  0  0  0
    6.8329   -0.1874    4.6543 C   0  0  0  0  0  0  0  0  0  0  0  0
    3.7439   -4.4369    4.4078 O   0  0  0  0  0  0  0  0  0  0  0  0
    5.4579   -2.8077    3.8820 C   0  0  2  0  0  0  0  0  0  0  0  0
   -1.1700    2.6256    4.3989 C   0  0  1  0  0  0  0  0  0  0  0  0
   -1.0540    5.1701    3.5272 C   0  0  0  0  0  0  0  0  0  0  0  0
    0.5723    1.0431    4.7932 O   0  0  0  0  0  0  0  0  0  0  0  0
   -1.5041   -0.0107    4.0226 C   0  0  0  0  0  0  0  0  0  0  0  0
    5.3214    4.1821    3.1216 O   0  0  0  0  0  0  0  0  0  0  0  0
    6.3164    4.3292    5.3348 C   0  0  2  0  0  0  0  0  0  0  0  0
    3.9661   -0.0297    6.8954 C   0  0  0  0  0  0  0  0  0  0  0  0
    6.5372   -2.6682    2.8029 C   0  0  0  0  0  0  0  0  0  0  0  0
   -0.9387    2.7286    5.8372 O   0  0  0  0  0  0  0  0  0  0  0  0
   -2.7029    2.8900    4.2304 C   0  0  0  0  0  0  0  0  0  0  0  0
    1.2499   -0.1957    4.8492 C   0  0  0  0  0  0  0  0  0  0  0  0
    6.5871    4.3817    2.4801 C   0  0  1  0  0  0  0  0  0  0  0  0
    5.7594    5.6578    5.5299 O   0  0  0  0  0  0  0  0  0  0  0  0
    7.7668    4.5002    4.7662 C   0  0  2  0  0  0  0  0  0  0  0  0
   -3.8087    2.1359    4.9133 N   0  0  0  0  0  0  0  0  0  0  0  0
    7.6048    5.1126    3.3583 C   0  0  0  0  0  0  0  0  0  0  0  0
    7.1655    3.1155    1.8628 C   0  0  0  0  0  0  0  0  0  0  0  0
    8.5844    3.2601    4.8718 N   0  0  0  0  0  0  0  0  0  0  0  0
   -3.6346    2.0301    6.3943 C   0  0  0  0  0  0  0  0  0  0  0  0
   -5.0447    2.9062    4.6193 C   0  0  0  0  0  0  0  0  0  0  0  0
    8.9872    3.0099    6.2640 C   0  0  0  0  0  0  0  0  0  0  0  0
    9.7819    3.1941    4.0351 C   0  0  0  0  0  0  0  0  0  0  0  0
   -4.8791    1.5160    7.1267 C   0  0  0  0  0  0  0  0  0  0  0  0
   -5.3925    0.2290    6.8940 C   0  0  0  0  0  0  0  0  0  0  0  0
   -5.6090    2.3815    7.9526 C   0  0  0  0  0  0  0  0  0  0  0  0
   -6.6812   -0.1225    7.3335 C   0  0  0  0  0  0  0  0  0  0  0  0
   -6.8861    2.0284    8.3927 C   0  0  0  0  0  0  0  0  0  0  0  0
   -7.4696    0.8101    8.0125 C   0  0  0  0  0  0  0  0  0  0  0  0
   -8.8878    0.5898    8.2477 C   0  0  0  0  0  0  0  0  0  0  0  0
   -9.5346   -0.6184    8.3118 N   0  0  0  0  0  0  0  0  0  0  0  0
   -9.8182    1.5978    8.3762 C   0  0  0  0  0  0  0  0  0  0  0  0
  -10.8259   -0.3857    8.5519 N   0  0  0  0  0  0  0  0  0  0  0  0
  -10.9873    0.9467    8.6133 N   0  0  0  0  0  0  0  0  0  0  0  0
  -12.2159    1.5519    9.0782 C   0  0  0  0  0  0  0  0  0  0  0  0
  -12.9548    2.3299    7.9936 C   0  0  0  0  0  0  0  0  0  0  0  0
  -14.1380    3.1039    8.5812 C   0  0  0  0  0  0  0  0  0  0  0  0
  -14.8728    3.8706    7.4829 C   0  0  0  0  0  0  0  0  0  0  0  0
  -16.0729    4.6503    8.0345 C   0  0  0  0  0  0  0  0  0  0  0  0
  -16.8146    5.3670    6.9342 C   0  0  0  0  0  0  0  0  0  0  0  0
  -16.4858    5.3868    5.7497 O   0  0  0  0  0  0  0  0  0  0  0  0
  -17.9286    6.0424    7.3696 N   0  0  0  0  0  0  0  0  0  0  0  0
  -18.5648    6.8393    6.3679 O   0  0  0  0  0  0  0  0  0  0  0  0
    3.6900    0.9199   -0.1574 H   0  0  0  0  0  0  0  0  0  0  0  0
    1.0524   -2.5616   -0.3361 H   0  0  0  0  0  0  0  0  0  0  0  0
    2.3704    0.2797    2.3065 H   0  0  0  0  0  0  0  0  0  0  0  0
    1.0298    2.1096   -0.7665 H   0  0  0  0  0  0  0  0  0  0  0  0
    2.4590    1.9447   -1.6916 H   0  0  0  0  0  0  0  0  0  0  0  0
    2.4473    3.1443   -0.3919 H   0  0  0  0  0  0  0  0  0  0  0  0
    1.5161   -3.4505   -2.6214 H   0  0  0  0  0  0  0  0  0  0  0  0
    2.9356   -2.3999   -2.7482 H   0  0  0  0  0  0  0  0  0  0  0  0
    4.7498    2.0538    2.0085 H   0  0  0  0  0  0  0  0  0  0  0  0
    1.3630   -4.9736   -0.3221 H   0  0  0  0  0  0  0  0  0  0  0  0
    2.0889   -4.4512    1.7567 H   0  0  0  0  0  0  0  0  0  0  0  0
    4.2619   -3.7552   -1.8853 H   0  0  0  0  0  0  0  0  0  0  0  0
    4.8900   -4.5663   -0.5147 H   0  0  0  0  0  0  0  0  0  0  0  0
    4.8477   -2.7840   -0.5186 H   0  0  0  0  0  0  0  0  0  0  0  0
    0.1118   -1.3318   -2.4130 H   0  0  0  0  0  0  0  0  0  0  0  0
    0.9855   -1.4991   -3.9442 H   0  0  0  0  0  0  0  0  0  0  0  0
    1.5942   -0.3940   -2.7188 H   0  0  0  0  0  0  0  0  0  0  0  0
    0.7040    2.4711    1.0374 H   0  0  0  0  0  0  0  0  0  0  0  0
    3.7683    1.4842    4.5402 H   0  0  0  0  0  0  0  0  0  0  0  0
    4.5032   -0.9505    1.8704 H   0  0  0  0  0  0  0  0  0  0  0  0
    6.0758   -0.1180    2.0374 H   0  0  0  0  0  0  0  0  0  0  0  0
    5.1334    0.0730    0.6284 H   0  0  0  0  0  0  0  0  0  0  0  0
    1.8570   -2.1245    1.5952 H   0  0  0  0  0  0  0  0  0  0  0  0
    5.0309   -3.8641    1.4914 H   0  0  0  0  0  0  0  0  0  0  0  0
    0.2939    0.3226    2.1944 H   0  0  0  0  0  0  0  0  0  0  0  0
   -1.0755    1.3765    1.8553 H   0  0  0  0  0  0  0  0  0  0  0  0
    3.7701   -6.3867    2.5881 H   0  0  0  0  0  0  0  0  0  0  0  0
    5.4696   -6.0640    2.2425 H   0  0  0  0  0  0  0  0  0  0  0  0
    4.3139   -6.1844    0.9130 H   0  0  0  0  0  0  0  0  0  0  0  0
    0.5466    4.0358    4.3892 H   0  0  0  0  0  0  0  0  0  0  0  0
    4.3560    3.5992    4.8248 H   0  0  0  0  0  0  0  0  0  0  0  0
    3.7963   -1.3882    3.7343 H   0  0  0  0  0  0  0  0  0  0  0  0
    4.1703   -1.9680    5.2821 H   0  0  0  0  0  0  0  0  0  0  0  0
    7.2802    0.5704    5.3103 H   0  0  0  0  0  0  0  0  0  0  0  0
    7.2046    0.0140    3.6515 H   0  0  0  0  0  0  0  0  0  0  0  0
    7.2557   -1.1285    5.0219 H   0  0  0  0  0  0  0  0  0  0  0  0
    5.9930   -3.2111    4.7544 H   0  0  0  0  0  0  0  0  0  0  0  0
   -1.8154    5.0680    2.7377 H   0  0  0  0  0  0  0  0  0  0  0  0
   -0.3532    5.9159    3.1243 H   0  0  0  0  0  0  0  0  0  0  0  0
   -1.5102    5.5882    4.4235 H   0  0  0  0  0  0  0  0  0  0  0  0
   -1.0266   -0.8811    3.5421 H   0  0  0  0  0  0  0  0  0  0  0  0
   -2.4348    0.1179    3.4647 H   0  0  0  0  0  0  0  0  0  0  0  0
   -1.6966   -0.3151    5.0514 H   0  0  0  0  0  0  0  0  0  0  0  0
    6.3448    3.8774    6.3293 H   0  0  0  0  0  0  0  0  0  0  0  0
    4.1688    0.1201    7.9615 H   0  0  0  0  0  0  0  0  0  0  0  0
    3.4542   -0.9914    6.8220 H   0  0  0  0  0  0  0  0  0  0  0  0
    3.3227    0.7832    6.5628 H   0  0  0  0  0  0  0  0  0  0  0  0
    6.1558   -2.2997    1.8503 H   0  0  0  0  0  0  0  0  0  0  0  0
    6.9844   -3.6480    2.5939 H   0  0  0  0  0  0  0  0  0  0  0  0
    7.3702   -2.0281    3.0808 H   0  0  0  0  0  0  0  0  0  0  0  0
   -0.2991    2.0111    6.0320 H   0  0  0  0  0  0  0  0  0  0  0  0
   -2.9145    2.8741    3.1539 H   0  0  0  0  0  0  0  0  0  0  0  0
   -2.8503    3.9181    4.5791 H   0  0  0  0  0  0  0  0  0  0  0  0
    1.3367   -0.4747    5.9013 H   0  0  0  0  0  0  0  0  0  0  0  0
    2.2536   -0.0465    4.4688 H   0  0  0  0  0  0  0  0  0  0  0  0
    0.8062   -1.0240    4.3013 H   0  0  0  0  0  0  0  0  0  0  0  0
    6.3594    5.0482    1.6398 H   0  0  0  0  0  0  0  0  0  0  0  0
    5.3123    5.8877    4.6913 H   0  0  0  0  0  0  0  0  0  0  0  0
    8.2799    5.2810    5.3499 H   0  0  0  0  0  0  0  0  0  0  0  0
    7.2495    6.1462    3.4864 H   0  0  0  0  0  0  0  0  0  0  0  0
    8.5650    5.2193    2.8413 H   0  0  0  0  0  0  0  0  0  0  0  0
    7.4081    2.3585    2.6108 H   0  0  0  0  0  0  0  0  0  0  0  0
    8.0746    3.3436    1.3007 H   0  0  0  0  0  0  0  0  0  0  0  0
    6.4651    2.6608    1.1629 H   0  0  0  0  0  0  0  0  0  0  0  0
   -3.3677    3.0089    6.8160 H   0  0  0  0  0  0  0  0  0  0  0  0
   -2.8207    1.3363    6.6294 H   0  0  0  0  0  0  0  0  0  0  0  0
   -5.1840    3.0071    3.5377 H   0  0  0  0  0  0  0  0  0  0  0  0
   -5.0069    3.9163    5.0517 H   0  0  0  0  0  0  0  0  0  0  0  0
   -5.9492    2.4151    4.9879 H   0  0  0  0  0  0  0  0  0  0  0  0
    9.5140    2.0516    6.3426 H   0  0  0  0  0  0  0  0  0  0  0  0
    8.1290    2.9328    6.9355 H   0  0  0  0  0  0  0  0  0  0  0  0
    9.6544    3.7944    6.6418 H   0  0  0  0  0  0  0  0  0  0  0  0
   10.2943    2.2360    4.1945 H   0  0  0  0  0  0  0  0  0  0  0  0
   10.4925    4.0009    4.2380 H   0  0  0  0  0  0  0  0  0  0  0  0
    9.5478    3.2009    2.9701 H   0  0  0  0  0  0  0  0  0  0  0  0
   -4.8206   -0.4800    6.2998 H   0  0  0  0  0  0  0  0  0  0  0  0
   -5.2267    3.3682    8.2028 H   0  0  0  0  0  0  0  0  0  0  0  0
   -7.0817   -1.1029    7.0821 H   0  0  0  0  0  0  0  0  0  0  0  0
   -7.4424    2.7426    8.9946 H   0  0  0  0  0  0  0  0  0  0  0  0
   -9.7493    2.6734    8.3377 H   0  0  0  0  0  0  0  0  0  0  0  0
  -11.9281    2.2241    9.8954 H   0  0  0  0  0  0  0  0  0  0  0  0
  -12.8489    0.7661    9.5025 H   0  0  0  0  0  0  0  0  0  0  0  0
  -13.3069    1.6375    7.2199 H   0  0  0  0  0  0  0  0  0  0  0  0
  -12.2725    3.0333    7.4983 H   0  0  0  0  0  0  0  0  0  0  0  0
  -13.7784    3.8069    9.3373 H   0  0  0  0  0  0  0  0  0  0  0  0
  -14.8241    2.4137    9.0829 H   0  0  0  0  0  0  0  0  0  0  0  0
  -15.2185    3.1728    6.7150 H   0  0  0  0  0  0  0  0  0  0  0  0
  -14.1984    4.5704    7.0013 H   0  0  0  0  0  0  0  0  0  0  0  0
  -15.7387    5.3856    8.7743 H   0  0  0  0  0  0  0  0  0  0  0  0
  -16.7583    3.9772    8.5553 H   0  0  0  0  0  0  0  0  0  0  0  0
  -18.0755    6.3335    8.3217 H   0  0  0  0  0  0  0  0  0  0  0  0
  -18.0242    6.6495    5.5670 H   0  0  0  0  0  0  0  0  0  0  0  0
  1  2  2  0  0  0  0
  2  3  1  0  0  0  0
  2  4  1  0  0  0  0
  3  5  1  0  0  0  0
  4  6  1  1  0  0  0
  4  7  1  0  0  0  0
  4 77  1  0  0  0  0
  5  8  1  1  0  0  0
  5  9  1  0  0  0  0
  5 78  1  0  0  0  0
  6 10  1  0  0  0  0
  6 11  1  1  0  0  0
  6 79  1  0  0  0  0
  7 80  1  0  0  0  0
  7 81  1  0  0  0  0
  7 82  1  0  0  0  0
  8 12  1  0  0  0  0
  8 13  1  1  0  0  0
  8 14  1  0  0  0  0
  9 15  1  0  0  0  0
  9 83  1  0  0  0  0
  9 84  1  0  0  0  0
 11 17  1  1  0  0  0
 11 18  1  0  0  0  0
 11 85  1  0  0  0  0
 12 86  1  0  0  0  0
 13 20  1  1  0  0  0
 13 19  1  0  0  0  0
 13 87  1  0  0  0  0
 14 88  1  0  0  0  0
 14 89  1  0  0  0  0
 14 90  1  0  0  0  0
 15 91  1  0  0  0  0
 15 92  1  0  0  0  0
 15 93  1  0  0  0  0
 16 10  1  0  0  0  0
 16 21  1  0  0  0  0
 16 22  1  0  0  0  0
 16 94  1  6  0  0  0
 17 23  1  0  0  0  0
 17 24  1  1  0  0  0
 17 95  1  0  0  0  0
 18 96  1  0  0  0  0
 18 97  1  0  0  0  0
 18 98  1  0  0  0  0
 19 99  1  0  0  0  0
 20 25  1  0  0  0  0
 20 26  1  0  0  0  0
 20100  1  6  0  0  0
 21 27  1  0  0  0  0
 22 28  1  0  0  0  0
 22101  1  0  0  0  0
 22102  1  0  0  0  0
 24 30  1  1  0  0  0
 24 31  1  0  0  0  0
 24 32  1  0  0  0  0
 25 33  2  0  0  0  0
 25 34  1  0  0  0  0
 26103  1  0  0  0  0
 26104  1  0  0  0  0
 26105  1  0  0  0  0
 27 35  1  1  0  0  0
 27 36  1  0  0  0  0
 27106  1  0  0  0  0
 28 37  1  0  0  0  0
 28 38  1  0  0  0  0
 28 35  1  1  0  0  0
 29 23  1  0  0  0  0
 29 39  1  0  0  0  0
 29 40  1  1  0  0  0
 29107  1  0  0  0  0
 30 41  1  0  0  0  0
 31 34  1  0  0  0  0
 31108  1  0  0  0  0
 31109  1  0  0  0  0
 32110  1  0  0  0  0
 32111  1  0  0  0  0
 32112  1  0  0  0  0
 34 42  1  0  0  0  0
 34113  1  1  0  0  0
 35 43  1  1  0  0  0
 35 44  1  0  0  0  0
 36114  1  0  0  0  0
 36115  1  0  0  0  0
 36116  1  0  0  0  0
 37 45  1  0  0  0  0
 38117  1  0  0  0  0
 38118  1  0  0  0  0
 38119  1  0  0  0  0
 39 46  1  0  0  0  0
 40 48  1  6  0  0  0
 40 47  1  0  0  0  0
 40120  1  0  0  0  0
 41121  1  0  0  0  0
 41122  1  0  0  0  0
 41123  1  0  0  0  0
 42124  1  0  0  0  0
 42125  1  0  0  0  0
 42126  1  0  0  0  0
 43127  1  0  0  0  0
 44 49  1  0  0  0  0
 44128  1  0  0  0  0
 44129  1  0  0  0  0
 45130  1  0  0  0  0
 45131  1  0  0  0  0
 45132  1  0  0  0  0
 46 50  1  0  0  0  0
 46 51  1  0  0  0  0
 46133  1  6  0  0  0
 47134  1  0  0  0  0
 48 50  1  0  0  0  0
 48 52  1  0  0  0  0
 48135  1  1  0  0  0
 49 53  1  0  0  0  0
 49 54  1  0  0  0  0
 50136  1  0  0  0  0
 50137  1  0  0  0  0
 51138  1  0  0  0  0
 51139  1  0  0  0  0
 51140  1  0  0  0  0
 52 55  1  0  0  0  0
 52 56  1  0  0  0  0
 53 57  1  0  0  0  0
 53141  1  0  0  0  0
 53142  1  0  0  0  0
 54143  1  0  0  0  0
 54144  1  0  0  0  0
 54145  1  0  0  0  0
 55146  1  0  0  0  0
 55147  1  0  0  0  0
 55148  1  0  0  0  0
 56149  1  0  0  0  0
 56150  1  0  0  0  0
 56151  1  0  0  0  0
 57 58  2  0  0  0  0
 57 59  1  0  0  0  0
 58 60  1  0  0  0  0
 58152  1  0  0  0  0
 59 61  2  0  0  0  0
 59153  1  0  0  0  0
 60 62  2  0  0  0  0
 60154  1  0  0  0  0
 61 62  1  0  0  0  0
 61155  1  0  0  0  0
 62 63  1  0  0  0  0
 63 64  1  0  0  0  0
 63 65  2  0  0  0  0
 64 66  2  0  0  0  0
 65 67  1  0  0  0  0
 65156  1  0  0  0  0
 66 67  1  0  0  0  0
 67 68  1  0  0  0  0
 68 69  1  0  0  0  0
 68157  1  0  0  0  0
 68158  1  0  0  0  0
 69 70  1  0  0  0  0
 69159  1  0  0  0  0
 69160  1  0  0  0  0
 70 71  1  0  0  0  0
 70161  1  0  0  0  0
 70162  1  0  0  0  0
 71 72  1  0  0  0  0
 71163  1  0  0  0  0
 71164  1  0  0  0  0
 72 73  1  0  0  0  0
 72165  1  0  0  0  0
 72166  1  0  0  0  0
 73 74  2  0  0  0  0
 73 75  1  0  0  0  0
 75 76  1  0  0  0  0
 75167  1  0  0  0  0
 76168  1  0  0  0  0
M  END
>  <Molecule Name>
2337377

>  <MolRegNo>
2337377

>  <m>
=

>  <Value>
785

>  <Unit>
nM

>  <Type>
IC50

>  <pValue>
6.11

>  <Ligand Efficiency>
0

>  <Binding Efficiency>
0

>  <Surface Efficiency>
0

>  <Assay Index>
977538

>  <Assay Category>


>  <Assay Organism>
Homo sapiens

>  <Target ID>
22226

>  <Target Name>
Unchecked

>  <Target Organism>


>  <Target Description>
Target has not yet been assigned

>  <Sequence Accession>


>  <Reference>
Bioorg. Med. Chem. 23 (24), 7543-7564 (2015)

>  <Pubmed ID>
26585275

>  <DOI>
10.1016/j.bmc.2015.10.045

$$$$
2337321
 OpenBabel03252423463D

171175  0  0  0  0  0  0  0  0999 V2000
    0.5526   -0.2188   -0.0715 O   0  0  0  0  0  0  0  0  0  0  0  0
    1.7735   -0.1465   -0.0688 C   0  0  0  0  0  0  0  0  0  0  0  0
    2.5731   -1.2098   -0.3420 O   0  0  0  0  0  0  0  0  0  0  0  0
    2.5636    1.1099    0.2484 C   0  0  2  0  0  0  0  0  0  0  0  0
    1.9035   -2.4292   -0.7670 C   0  0  2  0  0  0  0  0  0  0  0  0
    2.6831    1.2413    1.8593 C   0  0  2  0  0  0  0  0  0  0  0  0
    1.9627    2.1804   -0.6878 C   0  0  0  0  0  0  0  0  0  0  0  0
    2.7010   -3.6651   -0.1945 C   0  0  2  0  0  0  0  0  0  0  0  0
    1.7801   -2.4300   -2.3132 C   0  0  0  0  0  0  0  0  0  0  0  0
    2.0319    2.3811    2.4451 O   0  0  0  0  0  0  0  0  0  0  0  0
    4.1833    1.1638    2.4053 C   0  0  1  0  0  0  0  0  0  0  0  0
    2.0851   -4.8771   -0.6787 O   0  0  0  0  0  0  0  0  0  0  0  0
    2.6964   -3.7612    1.4146 C   0  0  2  0  0  0  0  0  0  0  0  0
    4.1177   -3.6455   -0.8084 C   0  0  0  0  0  0  0  0  0  0  0  0
    0.9687   -1.2751   -2.8918 C   0  0  0  0  0  0  0  0  0  0  0  0
    0.6729    2.5567    2.0649 C   0  0  2  0  0  0  0  0  0  0  0  0
    4.4886    1.1951    4.0042 C   0  0  2  0  0  0  0  0  0  0  0  0
    4.8923    0.0102    1.7064 C   0  0  0  0  0  0  0  0  0  0  0  0
    2.3499   -2.5395    2.0713 O   0  0  0  0  0  0  0  0  0  0  0  0
    4.0263   -4.2488    2.0367 C   0  0  1  0  0  0  0  0  0  0  0  0
    0.1177    3.7903    2.4443 O   0  0  0  0  0  0  0  0  0  0  0  0
   -0.2593    1.4040    2.2926 C   0  0  0  0  0  0  0  0  0  0  0  0
    5.5284    2.1921    4.2896 O   0  0  0  0  0  0  0  0  0  0  0  0
    5.0979   -0.1438    4.7646 C   0  0  1  0  0  0  0  0  0  0  0  0
    4.2194   -3.8509    3.5066 C   0  0  0  0  0  0  0  0  0  0  0  0
    4.2654   -5.7521    1.9132 C   0  0  0  0  0  0  0  0  0  0  0  0
   -0.5947    3.9019    3.6633 C   0  0  2  0  0  0  0  0  0  0  0  0
   -0.7536    1.2609    3.7106 C   0  0  2  0  0  0  0  0  0  0  0  0
    5.1825    3.5561    4.3904 C   0  0  2  0  0  0  0  0  0  0  0  0
    4.9908    0.0082    6.2221 O   0  0  0  0  0  0  0  0  0  0  0  0
    4.4580   -1.5172    4.3711 C   0  0  0  0  0  0  0  0  0  0  0  0
    6.6452   -0.1513    4.6785 C   0  0  0  0  0  0  0  0  0  0  0  0
    3.5466   -4.3922    4.3990 O   0  0  0  0  0  0  0  0  0  0  0  0
    5.2654   -2.7600    3.8821 C   0  0  2  0  0  0  0  0  0  0  0  0
   -1.4008    2.6319    4.1809 C   0  0  1  0  0  0  0  0  0  0  0  0
   -1.3901    5.1857    3.3935 C   0  0  0  0  0  0  0  0  0  0  0  0
    0.3483    1.0751    4.6393 O   0  0  0  0  0  0  0  0  0  0  0  0
   -1.6269   -0.0119    3.7029 C   0  0  0  0  0  0  0  0  0  0  0  0
    5.1201    4.1911    3.1087 O   0  0  0  0  0  0  0  0  0  0  0  0
    6.1249    4.3905    5.3242 C   0  0  2  0  0  0  0  0  0  0  0  0
    3.7291   -0.0041    6.8788 C   0  0  0  0  0  0  0  0  0  0  0  0
    6.3601   -2.6306    2.8142 C   0  0  0  0  0  0  0  0  0  0  0  0
   -1.1716    2.6645    5.6563 O   0  0  0  0  0  0  0  0  0  0  0  0
   -2.9528    2.7410    4.2269 C   0  0  0  0  0  0  0  0  0  0  0  0
    1.0103   -0.1656    4.7754 C   0  0  0  0  0  0  0  0  0  0  0  0
    6.3978    4.4147    2.4741 C   0  0  1  0  0  0  0  0  0  0  0  0
    5.5576    5.7165    5.5039 O   0  0  0  0  0  0  0  0  0  0  0  0
    7.5735    4.5644    4.7552 C   0  0  2  0  0  0  0  0  0  0  0  0
   -3.9362    2.9479    3.1406 N   0  0  0  0  0  0  0  0  0  0  0  0
    7.3977    5.1643    3.3442 C   0  0  0  0  0  0  0  0  0  0  0  0
    7.0019    3.1539    1.8623 C   0  0  0  0  0  0  0  0  0  0  0  0
    8.4018    3.3300    4.8579 N   0  0  0  0  0  0  0  0  0  0  0  0
   -4.1267    1.7555    2.2901 C   0  0  0  0  0  0  0  0  0  0  0  0
   -5.2054    3.2775    3.8416 C   0  0  0  0  0  0  0  0  0  0  0  0
    8.7851    3.0609    6.2517 C   0  0  0  0  0  0  0  0  0  0  0  0
    9.6133    3.2916    4.0388 C   0  0  0  0  0  0  0  0  0  0  0  0
   -5.2415    1.8879    1.2763 C   0  0  0  0  0  0  0  0  0  0  0  0
   -5.0387    2.4861    0.0266 C   0  0  0  0  0  0  0  0  0  0  0  0
   -6.5400    1.4988    1.6383 C   0  0  0  0  0  0  0  0  0  0  0  0
   -6.1289    2.8654   -0.7619 C   0  0  0  0  0  0  0  0  0  0  0  0
   -7.6247    1.8947    0.8688 C   0  0  0  0  0  0  0  0  0  0  0  0
   -7.4305    2.6554   -0.2925 C   0  0  0  0  0  0  0  0  0  0  0  0
   -8.5700    3.2806   -0.9258 C   0  0  0  0  0  0  0  0  0  0  0  0
   -8.6651    3.6833   -2.2308 N   0  0  0  0  0  0  0  0  0  0  0  0
   -9.7335    3.6043   -0.2670 C   0  0  0  0  0  0  0  0  0  0  0  0
   -9.8949    4.1570   -2.4245 N   0  0  0  0  0  0  0  0  0  0  0  0
  -10.5454    4.0607   -1.2527 N   0  0  0  0  0  0  0  0  0  0  0  0
  -11.9808    4.1860   -1.1600 C   0  0  0  0  0  0  0  0  0  0  0  0
  -12.4219    5.3915   -0.3405 C   0  0  0  0  0  0  0  0  0  0  0  0
  -13.9353    5.3719   -0.1481 C   0  0  0  0  0  0  0  0  0  0  0  0
  -14.4023    6.5722    0.6690 C   0  0  0  0  0  0  0  0  0  0  0  0
  -15.9161    6.5388    0.8464 C   0  0  0  0  0  0  0  0  0  0  0  0
  -16.4181    7.7203    1.6688 C   0  0  0  0  0  0  0  0  0  0  0  0
  -17.9245    7.6859    1.7986 C   0  0  0  0  0  0  0  0  0  0  0  0
  -18.6376    6.7724    1.3892 O   0  0  0  0  0  0  0  0  0  0  0  0
  -18.4532    8.7851    2.4322 N   0  0  0  0  0  0  0  0  0  0  0  0
  -19.8459    8.7135    2.6764 O   0  0  0  0  0  0  0  0  0  0  0  0
    3.5585    0.9955   -0.1764 H   0  0  0  0  0  0  0  0  0  0  0  0
    0.8873   -2.4855   -0.3521 H   0  0  0  0  0  0  0  0  0  0  0  0
    2.2208    0.3542    2.2955 H   0  0  0  0  0  0  0  0  0  0  0  0
    0.8677    2.1494   -0.7548 H   0  0  0  0  0  0  0  0  0  0  0  0
    2.2652    1.9665   -1.7218 H   0  0  0  0  0  0  0  0  0  0  0  0
    2.2943    3.1930   -0.4480 H   0  0  0  0  0  0  0  0  0  0  0  0
    1.3223   -3.3685   -2.6405 H   0  0  0  0  0  0  0  0  0  0  0  0
    2.7689   -2.3608   -2.7773 H   0  0  0  0  0  0  0  0  0  0  0  0
    4.6121    2.0823    2.0187 H   0  0  0  0  0  0  0  0  0  0  0  0
    1.1642   -4.9111   -0.3614 H   0  0  0  0  0  0  0  0  0  0  0  0
    1.9076   -4.4690    1.7050 H   0  0  0  0  0  0  0  0  0  0  0  0
    4.0851   -3.7187   -1.8996 H   0  0  0  0  0  0  0  0  0  0  0  0
    4.7095   -4.5171   -0.5197 H   0  0  0  0  0  0  0  0  0  0  0  0
    4.6676   -2.7375   -0.5399 H   0  0  0  0  0  0  0  0  0  0  0  0
   -0.0249   -1.2123   -2.4391 H   0  0  0  0  0  0  0  0  0  0  0  0
    0.8388   -1.4135   -3.9698 H   0  0  0  0  0  0  0  0  0  0  0  0
    1.4833   -0.3182   -2.7549 H   0  0  0  0  0  0  0  0  0  0  0  0
    0.6747    2.7155    1.0120 H   0  0  0  0  0  0  0  0  0  0  0  0
    3.5869    1.5187    4.5292 H   0  0  0  0  0  0  0  0  0  0  0  0
    4.3348   -0.9145    1.8452 H   0  0  0  0  0  0  0  0  0  0  0  0
    5.9135   -0.0956    2.0464 H   0  0  0  0  0  0  0  0  0  0  0  0
    4.9935    0.1249    0.6286 H   0  0  0  0  0  0  0  0  0  0  0  0
    1.9941   -1.9076    1.4367 H   0  0  0  0  0  0  0  0  0  0  0  0
    4.8202   -3.7718    1.4826 H   0  0  0  0  0  0  0  0  0  0  0  0
    0.2202    0.4727    2.0149 H   0  0  0  0  0  0  0  0  0  0  0  0
   -1.1130    1.5414    1.6187 H   0  0  0  0  0  0  0  0  0  0  0  0
    3.6055   -6.3242    2.5668 H   0  0  0  0  0  0  0  0  0  0  0  0
    5.2991   -5.9775    2.2011 H   0  0  0  0  0  0  0  0  0  0  0  0
    4.1217   -6.1077    0.8903 H   0  0  0  0  0  0  0  0  0  0  0  0
    0.1549    4.1555    4.4230 H   0  0  0  0  0  0  0  0  0  0  0  0
    4.1715    3.6411    4.8233 H   0  0  0  0  0  0  0  0  0  0  0  0
    3.6155   -1.3318    3.7079 H   0  0  0  0  0  0  0  0  0  0  0  0
    3.9604   -1.9199    5.2596 H   0  0  0  0  0  0  0  0  0  0  0  0
    7.0871    0.6018    5.3437 H   0  0  0  0  0  0  0  0  0  0  0  0
    7.0276    0.0556    3.6804 H   0  0  0  0  0  0  0  0  0  0  0  0
    7.0621   -1.0957    5.0441 H   0  0  0  0  0  0  0  0  0  0  0  0
    5.7866   -3.1692    4.7596 H   0  0  0  0  0  0  0  0  0  0  0  0
   -2.0603    5.0575    2.5337 H   0  0  0  0  0  0  0  0  0  0  0  0
   -0.6965    5.9866    3.0850 H   0  0  0  0  0  0  0  0  0  0  0  0
   -1.9558    5.5440    4.2525 H   0  0  0  0  0  0  0  0  0  0  0  0
   -1.0731   -0.8582    3.2718 H   0  0  0  0  0  0  0  0  0  0  0  0
   -2.4814    0.0509    3.0405 H   0  0  0  0  0  0  0  0  0  0  0  0
   -1.9371   -0.3228    4.7017 H   0  0  0  0  0  0  0  0  0  0  0  0
    6.1561    3.9530    6.3252 H   0  0  0  0  0  0  0  0  0  0  0  0
    3.9238    0.1453    7.9488 H   0  0  0  0  0  0  0  0  0  0  0  0
    3.2225   -0.9639    6.7927 H   0  0  0  0  0  0  0  0  0  0  0  0
    3.1013    0.8121    6.5382 H   0  0  0  0  0  0  0  0  0  0  0  0
    5.9989   -2.2559    1.8562 H   0  0  0  0  0  0  0  0  0  0  0  0
    6.7989   -3.6147    2.6089 H   0  0  0  0  0  0  0  0  0  0  0  0
    7.1936   -1.9978    3.1065 H   0  0  0  0  0  0  0  0  0  0  0  0
   -0.5863    1.9026    5.8393 H   0  0  0  0  0  0  0  0  0  0  0  0
   -3.1038    3.6074    4.8916 H   0  0  0  0  0  0  0  0  0  0  0  0
   -3.3041    1.8937    4.8338 H   0  0  0  0  0  0  0  0  0  0  0  0
    1.0146   -0.4236    5.8378 H   0  0  0  0  0  0  0  0  0  0  0  0
    2.0416   -0.0236    4.4718 H   0  0  0  0  0  0  0  0  0  0  0  0
    0.6096   -1.0037    4.2137 H   0  0  0  0  0  0  0  0  0  0  0  0
    6.1788    5.0763    1.6170 H   0  0  0  0  0  0  0  0  0  0  0  0
    5.0986    5.9305    4.6672 H   0  0  0  0  0  0  0  0  0  0  0  0
    8.0842    5.3496    5.3351 H   0  0  0  0  0  0  0  0  0  0  0  0
    7.0331    6.1960    3.4656 H   0  0  0  0  0  0  0  0  0  0  0  0
    8.3579    5.2804    2.8324 H   0  0  0  0  0  0  0  0  0  0  0  0
    7.2539    2.4090    2.6248 H   0  0  0  0  0  0  0  0  0  0  0  0
    7.9026    3.3961    1.2950 H   0  0  0  0  0  0  0  0  0  0  0  0
    6.3117    2.6748    1.1756 H   0  0  0  0  0  0  0  0  0  0  0  0
   -4.3363    0.8699    2.9008 H   0  0  0  0  0  0  0  0  0  0  0  0
   -3.2142    1.5657    1.7264 H   0  0  0  0  0  0  0  0  0  0  0  0
   -5.0870    4.1630    4.4787 H   0  0  0  0  0  0  0  0  0  0  0  0
   -5.5365    2.4454    4.4812 H   0  0  0  0  0  0  0  0  0  0  0  0
   -6.0160    3.5380    3.1593 H   0  0  0  0  0  0  0  0  0  0  0  0
    9.3235    2.1082    6.3228 H   0  0  0  0  0  0  0  0  0  0  0  0
    7.9154    2.9576    6.9056 H   0  0  0  0  0  0  0  0  0  0  0  0
    9.4342    3.8468    6.6564 H   0  0  0  0  0  0  0  0  0  0  0  0
   10.1342    2.3366    4.1895 H   0  0  0  0  0  0  0  0  0  0  0  0
   10.3114    4.1027    4.2660 H   0  0  0  0  0  0  0  0  0  0  0  0
    9.3946    3.3142    2.9704 H   0  0  0  0  0  0  0  0  0  0  0  0
   -4.0319    2.7187   -0.3123 H   0  0  0  0  0  0  0  0  0  0  0  0
   -6.7257    0.9889    2.5808 H   0  0  0  0  0  0  0  0  0  0  0  0
   -5.9609    3.3839   -1.7023 H   0  0  0  0  0  0  0  0  0  0  0  0
   -8.6247    1.6605    1.2263 H   0  0  0  0  0  0  0  0  0  0  0  0
  -10.0585    3.4973    0.7569 H   0  0  0  0  0  0  0  0  0  0  0  0
  -12.3373    3.2590   -0.6981 H   0  0  0  0  0  0  0  0  0  0  0  0
  -12.3876    4.2297   -2.1774 H   0  0  0  0  0  0  0  0  0  0  0  0
  -12.1123    6.3170   -0.8400 H   0  0  0  0  0  0  0  0  0  0  0  0
  -11.9320    5.3830    0.6417 H   0  0  0  0  0  0  0  0  0  0  0  0
  -14.2285    4.4449    0.3616 H   0  0  0  0  0  0  0  0  0  0  0  0
  -14.4312    5.3720   -1.1263 H   0  0  0  0  0  0  0  0  0  0  0  0
  -14.1073    7.5000    0.1650 H   0  0  0  0  0  0  0  0  0  0  0  0
  -13.9125    6.5651    1.6509 H   0  0  0  0  0  0  0  0  0  0  0  0
  -16.2099    5.5994    1.3325 H   0  0  0  0  0  0  0  0  0  0  0  0
  -16.3987    6.5464   -0.1392 H   0  0  0  0  0  0  0  0  0  0  0  0
  -16.1273    8.6633    1.1920 H   0  0  0  0  0  0  0  0  0  0  0  0
  -15.9827    7.6931    2.6744 H   0  0  0  0  0  0  0  0  0  0  0  0
  -17.9146    9.3761    3.0560 H   0  0  0  0  0  0  0  0  0  0  0  0
  -20.0868    7.8555    2.2600 H   0  0  0  0  0  0  0  0  0  0  0  0
  1  2  2  0  0  0  0
  2  3  1  0  0  0  0
  2  4  1  0  0  0  0
  3  5  1  0  0  0  0
  4  6  1  1  0  0  0
  4  7  1  0  0  0  0
  4 78  1  0  0  0  0
  5  8  1  1  0  0  0
  5  9  1  0  0  0  0
  5 79  1  0  0  0  0
  6 10  1  0  0  0  0
  6 11  1  1  0  0  0
  6 80  1  0  0  0  0
  7 81  1  0  0  0  0
  7 82  1  0  0  0  0
  7 83  1  0  0  0  0
  8 12  1  0  0  0  0
  8 13  1  1  0  0  0
  8 14  1  0  0  0  0
  9 15  1  0  0  0  0
  9 84  1  0  0  0  0
  9 85  1  0  0  0  0
 11 17  1  1  0  0  0
 11 18  1  0  0  0  0
 11 86  1  0  0  0  0
 12 87  1  0  0  0  0
 13 20  1  1  0  0  0
 13 19  1  0  0  0  0
 13 88  1  0  0  0  0
 14 89  1  0  0  0  0
 14 90  1  0  0  0  0
 14 91  1  0  0  0  0
 15 92  1  0  0  0  0
 15 93  1  0  0  0  0
 15 94  1  0  0  0  0
 16 10  1  0  0  0  0
 16 21  1  0  0  0  0
 16 22  1  0  0  0  0
 16 95  1  6  0  0  0
 17 23  1  0  0  0  0
 17 24  1  1  0  0  0
 17 96  1  0  0  0  0
 18 97  1  0  0  0  0
 18 98  1  0  0  0  0
 18 99  1  0  0  0  0
 19100  1  0  0  0  0
 20 25  1  0  0  0  0
 20 26  1  0  0  0  0
 20101  1  6  0  0  0
 21 27  1  0  0  0  0
 22 28  1  0  0  0  0
 22102  1  0  0  0  0
 22103  1  0  0  0  0
 24 30  1  1  0  0  0
 24 31  1  0  0  0  0
 24 32  1  0  0  0  0
 25 33  2  0  0  0  0
 25 34  1  0  0  0  0
 26104  1  0  0  0  0
 26105  1  0  0  0  0
 26106  1  0  0  0  0
 27 35  1  1  0  0  0
 27 36  1  0  0  0  0
 27107  1  0  0  0  0
 28 37  1  0  0  0  0
 28 38  1  0  0  0  0
 28 35  1  1  0  0  0
 29 23  1  0  0  0  0
 29 39  1  0  0  0  0
 29 40  1  1  0  0  0
 29108  1  0  0  0  0
 30 41  1  0  0  0  0
 31 34  1  0  0  0  0
 31109  1  0  0  0  0
 31110  1  0  0  0  0
 32111  1  0  0  0  0
 32112  1  0  0  0  0
 32113  1  0  0  0  0
 34 42  1  0  0  0  0
 34114  1  1  0  0  0
 35 43  1  1  0  0  0
 35 44  1  0  0  0  0
 36115  1  0  0  0  0
 36116  1  0  0  0  0
 36117  1  0  0  0  0
 37 45  1  0  0  0  0
 38118  1  0  0  0  0
 38119  1  0  0  0  0
 38120  1  0  0  0  0
 39 46  1  0  0  0  0
 40 48  1  6  0  0  0
 40 47  1  0  0  0  0
 40121  1  0  0  0  0
 41122  1  0  0  0  0
 41123  1  0  0  0  0
 41124  1  0  0  0  0
 42125  1  0  0  0  0
 42126  1  0  0  0  0
 42127  1  0  0  0  0
 43128  1  0  0  0  0
 44 49  1  0  0  0  0
 44129  1  0  0  0  0
 44130  1  0  0  0  0
 45131  1  0  0  0  0
 45132  1  0  0  0  0
 45133  1  0  0  0  0
 46 50  1  0  0  0  0
 46 51  1  0  0  0  0
 46134  1  6  0  0  0
 47135  1  0  0  0  0
 48 50  1  0  0  0  0
 48 52  1  0  0  0  0
 48136  1  1  0  0  0
 49 53  1  0  0  0  0
 49 54  1  0  0  0  0
 50137  1  0  0  0  0
 50138  1  0  0  0  0
 51139  1  0  0  0  0
 51140  1  0  0  0  0
 51141  1  0  0  0  0
 52 55  1  0  0  0  0
 52 56  1  0  0  0  0
 53 57  1  0  0  0  0
 53142  1  0  0  0  0
 53143  1  0  0  0  0
 54144  1  0  0  0  0
 54145  1  0  0  0  0
 54146  1  0  0  0  0
 55147  1  0  0  0  0
 55148  1  0  0  0  0
 55149  1  0  0  0  0
 56150  1  0  0  0  0
 56151  1  0  0  0  0
 56152  1  0  0  0  0
 57 58  2  0  0  0  0
 57 59  1  0  0  0  0
 58 60  1  0  0  0  0
 58153  1  0  0  0  0
 59 61  2  0  0  0  0
 59154  1  0  0  0  0
 60 62  2  0  0  0  0
 60155  1  0  0  0  0
 61 62  1  0  0  0  0
 61156  1  0  0  0  0
 62 63  1  0  0  0  0
 63 64  1  0  0  0  0
 63 65  2  0  0  0  0
 64 66  2  0  0  0  0
 65 67  1  0  0  0  0
 65157  1  0  0  0  0
 66 67  1  0  0  0  0
 67 68  1  0  0  0  0
 68 69  1  0  0  0  0
 68158  1  0  0  0  0
 68159  1  0  0  0  0
 69 70  1  0  0  0  0
 69160  1  0  0  0  0
 69161  1  0  0  0  0
 70 71  1  0  0  0  0
 70162  1  0  0  0  0
 70163  1  0  0  0  0
 71 72  1  0  0  0  0
 71164  1  0  0  0  0
 71165  1  0  0  0  0
 72 73  1  0  0  0  0
 72166  1  0  0  0  0
 72167  1  0  0  0  0
 73 74  1  0  0  0  0
 73168  1  0  0  0  0
 73169  1  0  0  0  0
 74 75  2  0  0  0  0
 74 76  1  0  0  0  0
 76 77  1  0  0  0  0
 76170  1  0  0  0  0
 77171  1  0  0  0  0
M  END
>  <Molecule Name>
2337321

>  <MolRegNo>
2337321

>  <m>
=

>  <Value>
197

>  <Unit>
nM

>  <Type>
IC50

>  <pValue>
6.71

>  <Ligand Efficiency>
0

>  <Binding Efficiency>
0

>  <Surface Efficiency>
0

>  <Assay Index>
977538

>  <Assay Category>


>  <Assay Organism>
Homo sapiens

>  <Target ID>
22226

>  <Target Name>
Unchecked

>  <Target Organism>


>  <Target Description>
Target has not yet been assigned

>  <Sequence Accession>


>  <Reference>
Bioorg. Med. Chem. 23 (24), 7543-7564 (2015)

>  <Pubmed ID>
26585275

>  <DOI>
10.1016/j.bmc.2015.10.045

$$$$
2337358
 OpenBabel03252423463D

171175  0  0  0  0  0  0  0  0999 V2000
   -0.1938    4.7050    2.4436 O   0  0  0  0  0  0  0  0  0  0  0  0
   -0.5682    3.6010    2.0555 C   0  0  0  0  0  0  0  0  0  0  0  0
   -1.8359    3.3107    1.6662 O   0  0  0  0  0  0  0  0  0  0  0  0
    0.2784    2.3120    2.1513 C   0  0  2  0  0  0  0  0  0  0  0  0
   -2.7137    4.4754    1.4213 C   0  0  2  0  0  0  0  0  0  0  0  0
    0.9479    2.3128    3.6458 C   0  0  2  0  0  0  0  0  0  0  0  0
    1.0481    2.0250    0.8588 C   0  0  0  0  0  0  0  0  0  0  0  0
   -4.0982    4.2184    2.1225 C   0  0  2  0  0  0  0  0  0  0  0  0
   -2.7904    4.6455   -0.1160 C   0  0  0  0  0  0  0  0  0  0  0  0
    2.3712    2.3017    3.6562 O   0  0  0  0  0  0  0  0  0  0  0  0
    0.3903    1.1485    4.5640 C   0  0  1  0  0  0  0  0  0  0  0  0
   -5.0381    5.2158    1.6691 O   0  0  0  0  0  0  0  0  0  0  0  0
   -4.0467    4.3393    3.7357 C   0  0  2  0  0  0  0  0  0  0  0  0
   -4.6578    2.8772    1.6048 C   0  0  0  0  0  0  0  0  0  0  0  0
   -1.4387    4.9349   -0.7640 C   0  0  0  0  0  0  0  0  0  0  0  0
    2.9977    3.5793    3.4752 C   0  0  1  0  0  0  0  0  0  0  0  0
    0.5148    1.2899    6.2350 C   0  0  2  0  0  0  0  0  0  0  0  0
   -1.0531    1.0113    4.0697 C   0  0  0  0  0  0  0  0  0  0  0  0
   -2.7217    4.5344    4.2171 O   0  0  0  0  0  0  0  0  0  0  0  0
   -4.7350    3.1942    4.5248 C   0  0  1  0  0  0  0  0  0  0  0  0
    4.4073    3.4703    3.6565 O   0  0  0  0  0  0  0  0  0  0  0  0
    2.7539    3.9751    2.0620 C   0  0  0  0  0  0  0  0  0  0  0  0
    1.8969    0.9464    6.7366 O   0  0  0  0  0  0  0  0  0  0  0  0
   -0.8487    0.5368    6.9193 C   0  0  1  0  0  0  0  0  0  0  0  0
   -4.1624    2.8631    5.9334 C   0  0  0  0  0  0  0  0  0  0  0  0
   -6.2471    3.4098    4.6486 C   0  0  0  0  0  0  0  0  0  0  0  0
    5.2319    4.6064    3.3169 C   0  0  1  0  0  0  0  0  0  0  0  0
    3.3931    5.2491    1.6485 C   0  0  1  0  0  0  0  0  0  0  0  0
    2.3954    1.2729    8.1029 C   0  0  2  0  0  0  0  0  0  0  0  0
   -0.5393    0.3745    8.3256 O   0  0  0  0  0  0  0  0  0  0  0  0
   -2.0620    1.6307    6.7494 C   0  0  0  0  0  0  0  0  0  0  0  0
   -1.1572   -0.8946    6.3668 C   0  0  0  0  0  0  0  0  0  0  0  0
   -4.2125    3.7045    6.8362 O   0  0  0  0  0  0  0  0  0  0  0  0
   -3.5667    1.4321    6.2459 C   0  0  2  0  0  0  0  0  0  0  0  0
    4.9151    5.0205    1.8679 C   0  0  2  0  0  0  0  0  0  0  0  0
    5.2266    5.6267    4.4445 C   0  0  0  0  0  0  0  0  0  0  0  0
    3.0005    5.5550    0.2838 O   0  0  0  0  0  0  0  0  0  0  0  0
    2.7274    6.3908    2.4545 C   0  0  0  0  0  0  0  0  0  0  0  0
    2.1379    2.6049    8.5606 O   0  0  0  0  0  0  0  0  0  0  0  0
    3.9430    0.9308    8.5856 C   0  0  2  0  0  0  0  0  0  0  0  0
   -1.4397   -0.3588    9.1489 C   0  0  0  0  0  0  0  0  0  0  0  0
   -3.9659    0.4559    5.1152 C   0  0  0  0  0  0  0  0  0  0  0  0
    5.2894    3.8367    1.0823 O   0  0  0  0  0  0  0  0  0  0  0  0
    5.6299    6.2577    1.3234 C   0  0  0  0  0  0  0  0  0  0  0  0
    3.3490    4.6531   -0.7583 C   0  0  0  0  0  0  0  0  0  0  0  0
    3.1014    3.6160    8.2490 C   0  0  1  0  0  0  0  0  0  0  0  0
    4.0438    1.0440   10.0465 O   0  0  0  0  0  0  0  0  0  0  0  0
    5.0761    1.8554    8.0701 C   0  0  2  0  0  0  0  0  0  0  0  0
    7.1020    6.2502    1.1990 N   0  0  0  0  0  0  0  0  0  0  0  0
    4.6064    3.2927    8.4082 C   0  0  0  0  0  0  0  0  0  0  0  0
    2.7128    4.2400    6.9307 C   0  0  0  0  0  0  0  0  0  0  0  0
    5.6493    1.6819    6.7288 N   0  0  0  0  0  0  0  0  0  0  0  0
    7.5500    5.1510    0.3325 C   0  0  0  0  0  0  0  0  0  0  0  0
    7.4518    7.5402    0.5807 C   0  0  0  0  0  0  0  0  0  0  0  0
    4.7569    1.5229    5.6049 C   0  0  0  0  0  0  0  0  0  0  0  0
    6.8749    0.9209    6.5240 C   0  0  0  0  0  0  0  0  0  0  0  0
    4.2892    0.1697    5.1136 C   0  0  0  0  0  0  0  0  0  0  0  0
    3.8816   -0.8691    5.9381 C   0  0  0  0  0  0  0  0  0  0  0  0
    4.0303    0.0247    3.7421 C   0  0  0  0  0  0  0  0  0  0  0  0
    3.1713   -1.9536    5.4716 C   0  0  0  0  0  0  0  0  0  0  0  0
    3.3382   -1.0760    3.2435 C   0  0  0  0  0  0  0  0  0  0  0  0
    2.9282   -2.0805    4.1147 C   0  0  0  0  0  0  0  0  0  0  0  0
    2.4082   -3.3288    3.6443 C   0  0  0  0  0  0  0  0  0  0  0  0
    1.5947   -3.5426    2.5763 N   0  0  0  0  0  0  0  0  0  0  0  0
    2.8252   -4.5279    4.1693 C   0  0  0  0  0  0  0  0  0  0  0  0
    1.5193   -4.8569    2.3932 N   0  0  0  0  0  0  0  0  0  0  0  0
    2.3017   -5.4410    3.3188 N   0  0  0  0  0  0  0  0  0  0  0  0
    2.7472   -6.8045    3.1829 C   0  0  0  0  0  0  0  0  0  0  0  0
    2.6151   -7.6237    4.4662 C   0  0  0  0  0  0  0  0  0  0  0  0
    3.2258   -9.0092    4.2721 C   0  0  0  0  0  0  0  0  0  0  0  0
    3.1103   -9.8616    5.5355 C   0  0  0  0  0  0  0  0  0  0  0  0
    3.7297  -11.2365    5.2963 C   0  0  0  0  0  0  0  0  0  0  0  0
    3.6389  -12.1384    6.5238 C   0  0  0  0  0  0  0  0  0  0  0  0
    4.2804  -13.4867    6.2524 C   0  0  0  0  0  0  0  0  0  0  0  0
    4.7712  -13.8208    5.1698 O   0  0  0  0  0  0  0  0  0  0  0  0
    4.2910  -14.3290    7.3326 N   0  0  0  0  0  0  0  0  0  0  0  0
    4.8021  -15.6256    7.0862 O   0  0  0  0  0  0  0  0  0  0  0  0
   -0.4519    1.5177    2.0492 H   0  0  0  0  0  0  0  0  0  0  0  0
   -2.2930    5.4013    1.8259 H   0  0  0  0  0  0  0  0  0  0  0  0
    0.6240    3.2261    4.1628 H   0  0  0  0  0  0  0  0  0  0  0  0
    1.2601    2.9306    0.2850 H   0  0  0  0  0  0  0  0  0  0  0  0
    0.4344    1.4475    0.1556 H   0  0  0  0  0  0  0  0  0  0  0  0
    1.9525    1.4349    1.0294 H   0  0  0  0  0  0  0  0  0  0  0  0
   -3.4779    5.4597   -0.3644 H   0  0  0  0  0  0  0  0  0  0  0  0
   -3.1706    3.7318   -0.5830 H   0  0  0  0  0  0  0  0  0  0  0  0
    0.9243    0.2273    4.3113 H   0  0  0  0  0  0  0  0  0  0  0  0
   -4.7209    6.0887    1.9668 H   0  0  0  0  0  0  0  0  0  0  0  0
   -4.5588    5.2724    4.0083 H   0  0  0  0  0  0  0  0  0  0  0  0
   -4.8090    2.8991    0.5210 H   0  0  0  0  0  0  0  0  0  0  0  0
   -5.6497    2.6570    2.0055 H   0  0  0  0  0  0  0  0  0  0  0  0
   -3.9889    2.0409    1.8339 H   0  0  0  0  0  0  0  0  0  0  0  0
   -0.9604    5.8095   -0.3131 H   0  0  0  0  0  0  0  0  0  0  0  0
   -1.5714    5.1329   -1.8328 H   0  0  0  0  0  0  0  0  0  0  0  0
   -0.7602    4.0809   -0.6745 H   0  0  0  0  0  0  0  0  0  0  0  0
    2.5942    4.2763    4.2109 H   0  0  0  0  0  0  0  0  0  0  0  0
    0.4236    2.3556    6.4693 H   0  0  0  0  0  0  0  0  0  0  0  0
   -1.5188    1.9780    3.8643 H   0  0  0  0  0  0  0  0  0  0  0  0
   -1.7152    0.5663    4.7543 H   0  0  0  0  0  0  0  0  0  0  0  0
   -1.1459    0.3398    3.2095 H   0  0  0  0  0  0  0  0  0  0  0  0
   -2.1359    3.8841    3.8112 H   0  0  0  0  0  0  0  0  0  0  0  0
   -4.6172    2.3141    3.9164 H   0  0  0  0  0  0  0  0  0  0  0  0
    1.7186    4.1155    1.8640 H   0  0  0  0  0  0  0  0  0  0  0  0
    3.1027    3.1502    1.4390 H   0  0  0  0  0  0  0  0  0  0  0  0
   -6.4841    4.2488    5.3106 H   0  0  0  0  0  0  0  0  0  0  0  0
   -6.7210    2.5143    5.0657 H   0  0  0  0  0  0  0  0  0  0  0  0
   -6.7127    3.6092    3.6788 H   0  0  0  0  0  0  0  0  0  0  0  0
    6.2508    4.1944    3.3183 H   0  0  0  0  0  0  0  0  0  0  0  0
    1.8057    0.6266    8.7567 H   0  0  0  0  0  0  0  0  0  0  0  0
   -1.6730    2.4277    6.1011 H   0  0  0  0  0  0  0  0  0  0  0  0
   -2.1391    2.1414    7.7201 H   0  0  0  0  0  0  0  0  0  0  0  0
   -0.4954   -1.6533    6.7899 H   0  0  0  0  0  0  0  0  0  0  0  0
   -1.1046   -1.0555    5.2889 H   0  0  0  0  0  0  0  0  0  0  0  0
   -2.1795   -1.1851    6.6402 H   0  0  0  0  0  0  0  0  0  0  0  0
   -4.1294    1.0760    7.1192 H   0  0  0  0  0  0  0  0  0  0  0  0
    4.2291    5.9312    4.7483 H   0  0  0  0  0  0  0  0  0  0  0  0
    5.8171    6.5102    4.1946 H   0  0  0  0  0  0  0  0  0  0  0  0
    5.6667    5.1712    5.3406 H   0  0  0  0  0  0  0  0  0  0  0  0
    2.6998    6.2329    3.5311 H   0  0  0  0  0  0  0  0  0  0  0  0
    1.6768    6.4993    2.1543 H   0  0  0  0  0  0  0  0  0  0  0  0
    3.1944    7.3574    2.2610 H   0  0  0  0  0  0  0  0  0  0  0  0
    4.2549   -0.0940    8.4607 H   0  0  0  0  0  0  0  0  0  0  0  0
   -0.8432   -0.8723    9.9110 H   0  0  0  0  0  0  0  0  0  0  0  0
   -2.0177   -1.1350    8.6412 H   0  0  0  0  0  0  0  0  0  0  0  0
   -2.1237    0.3256    9.6519 H   0  0  0  0  0  0  0  0  0  0  0  0
   -3.5659    0.7280    4.1365 H   0  0  0  0  0  0  0  0  0  0  0  0
   -5.0523    0.4528    4.9926 H   0  0  0  0  0  0  0  0  0  0  0  0
   -3.6761   -0.5779    5.3067 H   0  0  0  0  0  0  0  0  0  0  0  0
    5.2516    3.0627    1.6834 H   0  0  0  0  0  0  0  0  0  0  0  0
    5.2161    6.4756    0.3307 H   0  0  0  0  0  0  0  0  0  0  0  0
    5.3503    7.1069    1.9588 H   0  0  0  0  0  0  0  0  0  0  0  0
    2.8770    5.0143   -1.6749 H   0  0  0  0  0  0  0  0  0  0  0  0
    2.9843    3.6393   -0.5912 H   0  0  0  0  0  0  0  0  0  0  0  0
    4.4241    4.6338   -0.9318 H   0  0  0  0  0  0  0  0  0  0  0  0
    2.9147    4.4073    8.9882 H   0  0  0  0  0  0  0  0  0  0  0  0
    3.1972    0.7908   10.4240 H   0  0  0  0  0  0  0  0  0  0  0  0
    5.9479    1.7266    8.7371 H   0  0  0  0  0  0  0  0  0  0  0  0
    4.8159    3.4197    9.4867 H   0  0  0  0  0  0  0  0  0  0  0  0
    5.2430    4.0592    7.9435 H   0  0  0  0  0  0  0  0  0  0  0  0
    2.6023    3.4849    6.1634 H   0  0  0  0  0  0  0  0  0  0  0  0
    3.4217    5.0045    6.6160 H   0  0  0  0  0  0  0  0  0  0  0  0
    1.7203    4.6936    7.0142 H   0  0  0  0  0  0  0  0  0  0  0  0
    7.5666    4.2055    0.8851 H   0  0  0  0  0  0  0  0  0  0  0  0
    8.5812    5.3078    0.0018 H   0  0  0  0  0  0  0  0  0  0  0  0
    6.9270    5.0329   -0.5635 H   0  0  0  0  0  0  0  0  0  0  0  0
    7.1196    8.3600    1.2192 H   0  0  0  0  0  0  0  0  0  0  0  0
    6.9881    7.6555   -0.4053 H   0  0  0  0  0  0  0  0  0  0  0  0
    8.5371    7.6269    0.4757 H   0  0  0  0  0  0  0  0  0  0  0  0
    5.3267    1.9527    4.7849 H   0  0  0  0  0  0  0  0  0  0  0  0
    3.8874    2.1451    5.7643 H   0  0  0  0  0  0  0  0  0  0  0  0
    7.3387    1.2281    5.5724 H   0  0  0  0  0  0  0  0  0  0  0  0
    6.6916   -0.1550    6.4516 H   0  0  0  0  0  0  0  0  0  0  0  0
    7.6388    1.0977    7.2856 H   0  0  0  0  0  0  0  0  0  0  0  0
    4.0201   -0.8735    6.9892 H   0  0  0  0  0  0  0  0  0  0  0  0
    4.3082    0.8270    3.0618 H   0  0  0  0  0  0  0  0  0  0  0  0
    2.8186   -2.6882    6.1908 H   0  0  0  0  0  0  0  0  0  0  0  0
    3.1246   -1.1343    2.1817 H   0  0  0  0  0  0  0  0  0  0  0  0
    3.5121   -4.7755    4.9667 H   0  0  0  0  0  0  0  0  0  0  0  0
    3.8003   -6.7487    2.8761 H   0  0  0  0  0  0  0  0  0  0  0  0
    2.1818   -7.2685    2.3668 H   0  0  0  0  0  0  0  0  0  0  0  0
    1.5580   -7.7089    4.7454 H   0  0  0  0  0  0  0  0  0  0  0  0
    3.1214   -7.1230    5.3002 H   0  0  0  0  0  0  0  0  0  0  0  0
    4.2832   -8.9074    3.9943 H   0  0  0  0  0  0  0  0  0  0  0  0
    2.7235   -9.5160    3.4394 H   0  0  0  0  0  0  0  0  0  0  0  0
    2.0547   -9.9719    5.8090 H   0  0  0  0  0  0  0  0  0  0  0  0
    3.6163   -9.3629    6.3715 H   0  0  0  0  0  0  0  0  0  0  0  0
    4.7817  -11.1166    5.0063 H   0  0  0  0  0  0  0  0  0  0  0  0
    3.2257  -11.7177    4.4483 H   0  0  0  0  0  0  0  0  0  0  0  0
    2.5910  -12.3033    6.7971 H   0  0  0  0  0  0  0  0  0  0  0  0
    4.1515  -11.6734    7.3735 H   0  0  0  0  0  0  0  0  0  0  0  0
    3.7118  -14.2129    8.1570 H   0  0  0  0  0  0  0  0  0  0  0  0
    5.0726  -15.5657    6.1425 H   0  0  0  0  0  0  0  0  0  0  0  0
  1  2  2  0  0  0  0
  2  3  1  0  0  0  0
  2  4  1  0  0  0  0
  3  5  1  0  0  0  0
  4  6  1  1  0  0  0
  4  7  1  0  0  0  0
  4 78  1  0  0  0  0
  5  8  1  1  0  0  0
  5  9  1  0  0  0  0
  5 79  1  0  0  0  0
  6 10  1  0  0  0  0
  6 11  1  1  0  0  0
  6 80  1  0  0  0  0
  7 81  1  0  0  0  0
  7 82  1  0  0  0  0
  7 83  1  0  0  0  0
  8 12  1  0  0  0  0
  8 13  1  1  0  0  0
  8 14  1  0  0  0  0
  9 15  1  0  0  0  0
  9 84  1  0  0  0  0
  9 85  1  0  0  0  0
 11 17  1  1  0  0  0
 11 18  1  0  0  0  0
 11 86  1  0  0  0  0
 12 87  1  0  0  0  0
 13 20  1  1  0  0  0
 13 19  1  0  0  0  0
 13 88  1  0  0  0  0
 14 89  1  0  0  0  0
 14 90  1  0  0  0  0
 14 91  1  0  0  0  0
 15 92  1  0  0  0  0
 15 93  1  0  0  0  0
 15 94  1  0  0  0  0
 16 21  1  0  0  0  0
 16 22  1  0  0  0  0
 16 10  1  0  0  0  0
 16 95  1  1  0  0  0
 17 23  1  0  0  0  0
 17 24  1  1  0  0  0
 17 96  1  0  0  0  0
 18 97  1  0  0  0  0
 18 98  1  0  0  0  0
 18 99  1  0  0  0  0
 19100  1  0  0  0  0
 20 25  1  0  0  0  0
 20 26  1  0  0  0  0
 20101  1  6  0  0  0
 21 27  1  0  0  0  0
 22 28  1  0  0  0  0
 22102  1  0  0  0  0
 22103  1  0  0  0  0
 24 30  1  1  0  0  0
 24 31  1  0  0  0  0
 24 32  1  0  0  0  0
 25 33  2  0  0  0  0
 25 34  1  0  0  0  0
 26104  1  0  0  0  0
 26105  1  0  0  0  0
 26106  1  0  0  0  0
 27 35  1  6  0  0  0
 27 36  1  0  0  0  0
 27107  1  0  0  0  0
 28 35  1  1  0  0  0
 28 38  1  0  0  0  0
 28 37  1  0  0  0  0
 29 23  1  0  0  0  0
 29 39  1  0  0  0  0
 29 40  1  1  0  0  0
 29108  1  0  0  0  0
 30 41  1  0  0  0  0
 31 34  1  0  0  0  0
 31109  1  0  0  0  0
 31110  1  0  0  0  0
 32111  1  0  0  0  0
 32112  1  0  0  0  0
 32113  1  0  0  0  0
 34 42  1  0  0  0  0
 34114  1  1  0  0  0
 35 44  1  0  0  0  0
 35 43  1  6  0  0  0
 36115  1  0  0  0  0
 36116  1  0  0  0  0
 36117  1  0  0  0  0
 37 45  1  0  0  0  0
 38118  1  0  0  0  0
 38119  1  0  0  0  0
 38120  1  0  0  0  0
 39 46  1  0  0  0  0
 40 48  1  6  0  0  0
 40 47  1  0  0  0  0
 40121  1  0  0  0  0
 41122  1  0  0  0  0
 41123  1  0  0  0  0
 41124  1  0  0  0  0
 42125  1  0  0  0  0
 42126  1  0  0  0  0
 42127  1  0  0  0  0
 43128  1  0  0  0  0
 44 49  1  0  0  0  0
 44129  1  0  0  0  0
 44130  1  0  0  0  0
 45131  1  0  0  0  0
 45132  1  0  0  0  0
 45133  1  0  0  0  0
 46 50  1  0  0  0  0
 46 51  1  0  0  0  0
 46134  1  1  0  0  0
 47135  1  0  0  0  0
 48 50  1  0  0  0  0
 48 52  1  0  0  0  0
 48136  1  1  0  0  0
 49 53  1  0  0  0  0
 49 54  1  0  0  0  0
 50137  1  0  0  0  0
 50138  1  0  0  0  0
 51139  1  0  0  0  0
 51140  1  0  0  0  0
 51141  1  0  0  0  0
 52 55  1  0  0  0  0
 52 56  1  0  0  0  0
 53142  1  0  0  0  0
 53143  1  0  0  0  0
 53144  1  0  0  0  0
 54145  1  0  0  0  0
 54146  1  0  0  0  0
 54147  1  0  0  0  0
 55 57  1  0  0  0  0
 55148  1  0  0  0  0
 55149  1  0  0  0  0
 56150  1  0  0  0  0
 56151  1  0  0  0  0
 56152  1  0  0  0  0
 57 58  2  0  0  0  0
 57 59  1  0  0  0  0
 58 60  1  0  0  0  0
 58153  1  0  0  0  0
 59 61  2  0  0  0  0
 59154  1  0  0  0  0
 60 62  2  0  0  0  0
 60155  1  0  0  0  0
 61 62  1  0  0  0  0
 61156  1  0  0  0  0
 62 63  1  0  0  0  0
 63 64  1  0  0  0  0
 63 65  2  0  0  0  0
 64 66  2  0  0  0  0
 65 67  1  0  0  0  0
 65157  1  0  0  0  0
 66 67  1  0  0  0  0
 67 68  1  0  0  0  0
 68 69  1  0  0  0  0
 68158  1  0  0  0  0
 68159  1  0  0  0  0
 69 70  1  0  0  0  0
 69160  1  0  0  0  0
 69161  1  0  0  0  0
 70 71  1  0  0  0  0
 70162  1  0  0  0  0
 70163  1  0  0  0  0
 71 72  1  0  0  0  0
 71164  1  0  0  0  0
 71165  1  0  0  0  0
 72 73  1  0  0  0  0
 72166  1  0  0  0  0
 72167  1  0  0  0  0
 73 74  1  0  0  0  0
 73168  1  0  0  0  0
 73169  1  0  0  0  0
 74 75  2  0  0  0  0
 74 76  1  0  0  0  0
 76 77  1  0  0  0  0
 76170  1  0  0  0  0
 77171  1  0  0  0  0
M  END
>  <Molecule Name>
2337358

>  <MolRegNo>
2337358

>  <m>
=

>  <Value>
260

>  <Unit>
nM

>  <Type>
IC50

>  <pValue>
6.58

>  <Ligand Efficiency>
0

>  <Binding Efficiency>
0

>  <Surface Efficiency>
0

>  <Assay Index>
977538

>  <Assay Category>


>  <Assay Organism>
Homo sapiens

>  <Target ID>
22226

>  <Target Name>
Unchecked

>  <Target Organism>


>  <Target Description>
Target has not yet been assigned

>  <Sequence Accession>


>  <Reference>
Bioorg. Med. Chem. 23 (24), 7543-7564 (2015)

>  <Pubmed ID>
26585275

>  <DOI>
10.1016/j.bmc.2015.10.045

$$$$
